<?xml version="1.0" encoding="UTF-8"?>

<!-- generated on 2025-09-20 21:32:51.844011 by randomTrips.py v1_24_0+0000-b72eb3fabc8
<configuration>
    <net-file value="osm.net.xml.gz"/>
    <output-trip-file value="osm.passenger.trips.xml"/>
    <route-file value="osm.passenger.rou.xml"/>
    <prefix value="veh"/>
    <trip-attributes value="departLane=best"/>
    <fringe-start-attributes value="departSpeed=max"/>
    <vehicle-class value="passenger"/>
    <lanes value="True"/>
    <fringe-factor value="5"/>
    <allow-fringe.min-length value="1000.0"/>
    <edge-permission value="passenger"/>
    <via-edge-types value="highway.motorway,highway.motorway_link,highway.trunk_link,highway.primary_link,highway.secondary_link,highway.tertiary_link"/>
    <min-distance value="300.0"/>
    <min-distance.fringe value="10.0"/>
    <remove-loops value="True"/>
    <insertion-density value="12.0"/>
</configuration>
-->

<routes xmlns:xsi="http://www.w3.org/2001/XMLSchema-instance" xsi:noNamespaceSchemaLocation="http://sumo.dlr.de/xsd/routes_file.xsd">
    <vType id="veh_passenger" vClass="passenger"/>
    <trip id="veh0" depart="0.00" from="136017975#5" to="-112462015#1" departLane=best type="veh_passenger"/>
    <trip id="veh1" depart="0.74" from="-291973730#4" to="-309190306" departLane=best type="veh_passenger"/>
    <trip id="veh2" depart="1.47" from="27935848#3" to="27936051#0" departLane=best type="veh_passenger"/>
    <trip id="veh3" depart="2.21" from="544999267" to="-133940680#0" departLane=best type="veh_passenger" departSpeed=max/>
    <trip id="veh4" depart="2.95" from="-694302723#1" to="-116061945#2" departLane=best type="veh_passenger" departSpeed=max/>
    <trip id="veh5" depart="3.68" from="-27935836#1" to="1228773170" departLane=best type="veh_passenger"/>
    <trip id="veh6" depart="4.42" from="-1102833429" to="-28120400#6" departLane=best type="veh_passenger" departSpeed=max/>
    <trip id="veh7" depart="5.16" from="1416769967-AddedOnRampEdge" to="1313904597" departLane=best type="veh_passenger"/>
    <trip id="veh8" depart="5.89" from="-27935848#3" to="147561899#5" departLane=best type="veh_passenger"/>
    <trip id="veh9" depart="6.63" from="310456183" to="-1101690261" departLane=best type="veh_passenger"/>
    <trip id="veh10" depart="7.37" from="309618857#0" to="28120412#1" departLane=best type="veh_passenger"/>
    <trip id="veh11" depart="8.10" from="-32266734#1" to="-27935002#0" departLane=best type="veh_passenger"/>
    <trip id="veh12" depart="8.84" from="744561216#14" to="-694302727#2" departLane=best type="veh_passenger"/>
    <trip id="veh13" depart="9.57" from="-1227538297#0" to="-1391538488" departLane=best type="veh_passenger"/>
    <trip id="veh14" depart="10.31" from="334652524#3" to="148210029" departLane=best type="veh_passenger"/>
    <trip id="veh15" depart="11.05" from="310456166#1" to="309190307" departLane=best type="veh_passenger"/>
    <trip id="veh16" depart="11.78" from="1109895159" to="800240405" departLane=best type="veh_passenger" departSpeed=max/>
    <trip id="veh17" depart="12.52" from="-40696206#0" to="133748880#3" departLane=best type="veh_passenger"/>
    <trip id="veh18" depart="13.26" from="312063814#0" to="231659913#0" departLane=best type="veh_passenger" departSpeed=max/>
    <trip id="veh19" depart="13.99" from="40693500" to="1392543572#3" departLane=best type="veh_passenger" departSpeed=max/>
    <trip id="veh20" depart="14.73" from="24488892#2" to="-1227566229#1" departLane=best type="veh_passenger"/>
    <trip id="veh21" depart="15.47" from="-27936022#2" to="-40693548#0" departLane=best type="veh_passenger"/>
    <trip id="veh22" depart="16.20" from="-1185468746" to="-309618845#8" departLane=best type="veh_passenger" departSpeed=max/>
    <trip id="veh23" depart="16.94" from="-1236087679#1" to="-38098067#4" departLane=best type="veh_passenger" departSpeed=max/>
    <trip id="veh24" depart="17.68" from="1350362144#8" to="-799592389#1" departLane=best type="veh_passenger"/>
    <trip id="veh25" depart="18.41" from="-40693536#2" to="-28262948#4" departLane=best type="veh_passenger"/>
    <trip id="veh26" depart="19.15" from="-291228868" to="695251940#1" departLane=best type="veh_passenger" departSpeed=max/>
    <trip id="veh27" depart="19.89" from="1392543572#6" to="164040895#0" departLane=best type="veh_passenger"/>
    <trip id="veh28" depart="20.62" from="-147575198#2" to="309190304#2" departLane=best type="veh_passenger"/>
    <trip id="veh29" depart="21.36" from="-147575144#0" to="-81254189#7" departLane=best type="veh_passenger"/>
    <trip id="veh30" depart="22.10" from="81254206#0" to="24490732#4" departLane=best type="veh_passenger"/>
    <trip id="veh31" depart="22.83" from="1182178611" to="27994446#2" departLane=best type="veh_passenger"/>
    <trip id="veh32" depart="23.57" from="32267142#1" to="310665112#2" departLane=best type="veh_passenger"/>
    <trip id="veh33" depart="24.31" from="-27936025#0" to="-1183377618" departLane=best type="veh_passenger"/>
    <trip id="veh34" depart="25.04" from="-310665080#1" to="-32267142#0" departLane=best type="veh_passenger" departSpeed=max/>
    <trip id="veh35" depart="25.78" from="-27935326#2" to="696064749" departLane=best type="veh_passenger"/>
    <trip id="veh36" depart="26.51" from="40696206#1" to="-59482034#1" departLane=best type="veh_passenger"/>
    <trip id="veh37" depart="27.25" from="147561888#1" to="1065415314" departLane=best type="veh_passenger"/>
    <trip id="veh38" depart="27.99" from="654180127#0" to="1110190793" departLane=best type="veh_passenger"/>
    <trip id="veh39" depart="28.72" from="-290639793#1" to="-310665100" departLane=best type="veh_passenger"/>
    <trip id="veh40" depart="29.46" from="1196120486" to="-32266743#2" departLane=best type="veh_passenger"/>
    <trip id="veh41" depart="30.20" from="123624213#20" to="694302715" departLane=best type="veh_passenger"/>
    <trip id="veh42" depart="30.93" from="-60194989#10" to="-291973734#3" departLane=best type="veh_passenger"/>
    <trip id="veh43" depart="31.67" from="995122820" to="1236087679#1" departLane=best type="veh_passenger" departSpeed=max/>
    <trip id="veh44" depart="32.41" from="-1227514428#0" to="-1228786753#1" departLane=best type="veh_passenger"/>
    <trip id="veh45" depart="33.14" from="-123629137#1" to="237025639#12" departLane=best type="veh_passenger"/>
    <trip id="veh46" depart="33.88" from="309190306" to="1102833433" departLane=best type="veh_passenger" departSpeed=max/>
    <trip id="veh47" depart="34.62" from="-1110211978" to="-81254201#2" departLane=best type="veh_passenger" departSpeed=max/>
    <trip id="veh48" depart="35.35" from="97187758" to="1254626825" departLane=best type="veh_passenger"/>
    <trip id="veh49" depart="36.09" from="-1101675540" to="291973721#16" departLane=best type="veh_passenger" departSpeed=max/>
    <trip id="veh50" depart="36.83" from="229976708#4" to="128220208#4" departLane=best type="veh_passenger"/>
    <trip id="veh51" depart="37.56" from="-291228868" to="24490736#3" departLane=best type="veh_passenger" departSpeed=max/>
    <trip id="veh52" depart="38.30" from="-123629152#3" to="1103093303" departLane=best type="veh_passenger" departSpeed=max/>
    <trip id="veh53" depart="39.04" from="-694981037" to="744806547" departLane=best type="veh_passenger" departSpeed=max/>
    <trip id="veh54" depart="39.77" from="40696203#0" to="-32266753#1" departLane=best type="veh_passenger"/>
    <trip id="veh55" depart="40.51" from="-81254206#0" to="-27936036#2" departLane=best type="veh_passenger"/>
    <trip id="veh56" depart="41.25" from="631197944#0" to="610166550#10" departLane=best type="veh_passenger"/>
    <trip id="veh57" depart="41.98" from="-310456169" to="24490731#4" departLane=best type="veh_passenger" departSpeed=max/>
    <trip id="veh58" depart="42.72" from="128220170#1" to="-27934854#8" departLane=best type="veh_passenger"/>
    <trip id="veh59" depart="43.45" from="290638884#10" to="125862470#1" departLane=best type="veh_passenger"/>
    <trip id="veh60" depart="44.19" from="-1031629624" to="-655837528" departLane=best type="veh_passenger" departSpeed=max/>
    <trip id="veh61" depart="44.93" from="-1101696108" to="694981019" departLane=best type="veh_passenger" departSpeed=max/>
    <trip id="veh62" depart="45.66" from="40696214#1" to="40693543#2" departLane=best type="veh_passenger"/>
    <trip id="veh63" depart="46.40" from="-310653927#3" to="-123629137#6" departLane=best type="veh_passenger" departSpeed=max/>
    <trip id="veh64" depart="47.14" from="40696211" to="727364339" departLane=best type="veh_passenger" departSpeed=max/>
    <trip id="veh65" depart="47.87" from="-1196120540" to="1196120512#0" departLane=best type="veh_passenger" departSpeed=max/>
    <trip id="veh66" depart="48.61" from="-112462016#2" to="310665056" departLane=best type="veh_passenger"/>
    <trip id="veh67" depart="49.35" from="28120403#1" to="-233128998#1" departLane=best type="veh_passenger"/>
    <trip id="veh68" depart="50.08" from="-794381851" to="1335927786#3" departLane=best type="veh_passenger" departSpeed=max/>
    <trip id="veh69" depart="50.82" from="-290639793#10" to="610166550#6" departLane=best type="veh_passenger"/>
    <trip id="veh70" depart="51.56" from="-694302726#1" to="-290639790#7" departLane=best type="veh_passenger" departSpeed=max/>
    <trip id="veh71" depart="52.29" from="1109914039#0" to="309190307" departLane=best type="veh_passenger"/>
    <trip id="veh72" depart="53.03" from="-27934493#2" to="-558743551#0" departLane=best type="veh_passenger"/>
    <trip id="veh73" depart="53.77" from="886485940#0" to="27934738#2" departLane=best type="veh_passenger"/>
    <trip id="veh74" depart="54.50" from="-694563670#2" to="123629124#3" departLane=best type="veh_passenger" departSpeed=max/>
    <trip id="veh75" depart="55.24" from="-128220108#2" to="-309191367#0" departLane=best type="veh_passenger"/>
    <trip id="veh76" depart="55.98" from="-317617775#1" to="147561896#2" departLane=best type="veh_passenger"/>
    <trip id="veh77" depart="56.71" from="-27936039#1" to="-291973742#0" departLane=best type="veh_passenger"/>
    <trip id="veh78" depart="57.45" from="-1150869431#1" to="237089974#1" departLane=best type="veh_passenger"/>
    <trip id="veh79" depart="58.19" from="-27936024#2" to="694335184" departLane=best type="veh_passenger" departSpeed=max/>
    <trip id="veh80" depart="58.92" from="383732625#1" to="-128220148#0" departLane=best type="veh_passenger"/>
    <trip id="veh81" depart="59.66" from="-27994428#1" to="27935889#2" departLane=best type="veh_passenger"/>
    <trip id="veh82" depart="60.39" from="-27935443" to="-237089966#0" departLane=best type="veh_passenger"/>
    <trip id="veh83" depart="61.13" from="694302708" to="1369156733#0" departLane=best type="veh_passenger"/>
    <trip id="veh84" depart="61.87" from="-778475534" to="310667988#3" departLane=best type="veh_passenger" departSpeed=max/>
    <trip id="veh85" depart="62.60" from="310456168#0" to="-28103474#3" departLane=best type="veh_passenger"/>
    <trip id="veh86" depart="63.34" from="-694302727#2" to="112462016#0" departLane=best type="veh_passenger"/>
    <trip id="veh87" depart="64.08" from="27935419#4" to="27936013#1" departLane=best type="veh_passenger"/>
    <trip id="veh88" depart="64.81" from="81254183#12" to="-1422945745#2" departLane=best type="veh_passenger"/>
    <trip id="veh89" depart="65.55" from="-628245636" to="-694302731#1" departLane=best type="veh_passenger" departSpeed=max/>
    <trip id="veh90" depart="66.29" from="40693500" to="-310665110#0" departLane=best type="veh_passenger" departSpeed=max/>
    <trip id="veh91" depart="67.02" from="-694302723#1" to="-383732625#2" departLane=best type="veh_passenger" departSpeed=max/>
    <trip id="veh92" depart="67.76" from="-28120400#2" to="694981005" departLane=best type="veh_passenger"/>
    <trip id="veh93" depart="68.50" from="-694981005" to="558743551#1" departLane=best type="veh_passenger" departSpeed=max/>
    <trip id="veh94" depart="69.23" from="1148718730#2" to="-123624213#5" departLane=best type="veh_passenger"/>
    <trip id="veh95" depart="69.97" from="995122863" to="40696195" departLane=best type="veh_passenger" departSpeed=max/>
    <trip id="veh96" depart="70.71" from="799565065#2" to="694981013#2" departLane=best type="veh_passenger"/>
    <trip id="veh97" depart="71.44" from="343689123#0" to="-27935810#8" departLane=best type="veh_passenger"/>
    <trip id="veh98" depart="72.18" from="-800240405" to="-291228867" departLane=best type="veh_passenger" departSpeed=max/>
    <trip id="veh99" depart="72.92" from="-609391852" to="-123629152#0" departLane=best type="veh_passenger"/>
    <trip id="veh100" depart="73.65" from="-40696212#1" to="81254189#8" departLane=best type="veh_passenger"/>
    <trip id="veh101" depart="74.39" from="-290639793#2" to="310667986#1" departLane=best type="veh_passenger"/>
    <trip id="veh102" depart="75.13" from="-694981041#1" to="1102833434" departLane=best type="veh_passenger" departSpeed=max/>
    <trip id="veh103" depart="75.86" from="744561216#3" to="970276328" departLane=best type="veh_passenger"/>
    <trip id="veh104" depart="76.60" from="116061945#8" to="291973716#1" departLane=best type="veh_passenger"/>
    <trip id="veh105" depart="77.33" from="-1427484095" to="-40696211" departLane=best type="veh_passenger"/>
    <trip id="veh106" depart="78.07" from="799565065#0" to="1411121774#0" departLane=best type="veh_passenger"/>
    <trip id="veh107" depart="78.81" from="1110178620#0" to="310456163" departLane=best type="veh_passenger"/>
    <trip id="veh108" depart="79.54" from="-1109913567" to="1427462048" departLane=best type="veh_passenger" departSpeed=max/>
    <trip id="veh109" depart="80.28" from="-81609307#3" to="544949498#1" departLane=best type="veh_passenger"/>
    <trip id="veh110" depart="81.02" from="-147561896#2" to="794624007" departLane=best type="veh_passenger"/>
    <trip id="veh111" depart="81.75" from="-1185468746" to="-27994386#2" departLane=best type="veh_passenger" departSpeed=max/>
    <trip id="veh112" depart="82.49" from="123629187#0" to="27936025#0" departLane=best type="veh_passenger" departSpeed=max/>
    <trip id="veh113" depart="83.23" from="-27994380#12" to="-222798629#0" departLane=best type="veh_passenger"/>
    <trip id="veh114" depart="83.96" from="500860056#5" to="-310665096" departLane=best type="veh_passenger"/>
    <trip id="veh115" depart="84.70" from="123629185#0" to="232235457#2" departLane=best type="veh_passenger"/>
    <trip id="veh116" depart="85.44" from="-694302718" to="1427462048" departLane=best type="veh_passenger" departSpeed=max/>
    <trip id="veh117" depart="86.17" from="1101690264" to="694981038" departLane=best type="veh_passenger" departSpeed=max/>
    <trip id="veh118" depart="86.91" from="-27934854#7" to="291228868" departLane=best type="veh_passenger"/>
    <trip id="veh119" depart="87.65" from="148323166" to="-459396044#0" departLane=best type="veh_passenger" departSpeed=max/>
    <trip id="veh120" depart="88.38" from="-310665083#1" to="310456178#0" departLane=best type="veh_passenger"/>
    <trip id="veh121" depart="89.12" from="-1157593827" to="1110178624#1" departLane=best type="veh_passenger" departSpeed=max/>
    <trip id="veh122" depart="89.86" from="995122857" to="970812531" departLane=best type="veh_passenger"/>
    <trip id="veh123" depart="90.59" from="-116061945#0" to="-290639912#3" departLane=best type="veh_passenger"/>
    <trip id="veh124" depart="91.33" from="-290639793#2" to="694981036" departLane=best type="veh_passenger"/>
    <trip id="veh125" depart="92.07" from="443045599#0" to="655065509" departLane=best type="veh_passenger"/>
    <trip id="veh126" depart="92.80" from="-40693533#2" to="-27935151#7" departLane=best type="veh_passenger"/>
    <trip id="veh127" depart="93.54" from="317318168#4" to="28120456#1" departLane=best type="veh_passenger"/>
    <trip id="veh128" depart="94.27" from="128220214#0" to="81254201#1" departLane=best type="veh_passenger"/>
    <trip id="veh129" depart="95.01" from="1427484094#2" to="-1101690267" departLane=best type="veh_passenger"/>
    <trip id="veh130" depart="95.75" from="310665098#0" to="-449441312" departLane=best type="veh_passenger" departSpeed=max/>
    <trip id="veh131" depart="96.48" from="147575142#2" to="695251944#2" departLane=best type="veh_passenger"/>
    <trip id="veh132" depart="97.22" from="-133524199#5" to="-147575196#1" departLane=best type="veh_passenger"/>
    <trip id="veh133" depart="97.96" from="-123629036#4" to="133763768#1" departLane=best type="veh_passenger"/>
    <trip id="veh134" depart="98.69" from="-291973721#24" to="148210029" departLane=best type="veh_passenger" departSpeed=max/>
    <trip id="veh135" depart="99.43" from="27934525#0" to="-28120439#1" departLane=best type="veh_passenger"/>
    <trip id="veh136" depart="100.17" from="1350362144#10" to="-32266766#0" departLane=best type="veh_passenger"/>
    <trip id="veh137" depart="100.90" from="-800240420#1" to="694335184" departLane=best type="veh_passenger"/>
    <trip id="veh138" depart="101.64" from="334455496#7" to="-135538057#1" departLane=best type="veh_passenger"/>
    <trip id="veh139" depart="102.38" from="-694302727#2" to="-372542723#3" departLane=best type="veh_passenger"/>
    <trip id="veh140" depart="103.11" from="-1099665398" to="310665095" departLane=best type="veh_passenger"/>
    <trip id="veh141" depart="103.85" from="135532011#2" to="-322022988#7" departLane=best type="veh_passenger"/>
    <trip id="veh142" depart="104.59" from="27935974#1" to="133748880#0" departLane=best type="veh_passenger"/>
    <trip id="veh143" depart="105.32" from="-694335192" to="-1101690301" departLane=best type="veh_passenger" departSpeed=max/>
    <trip id="veh144" depart="106.06" from="-1183377619" to="659863436" departLane=best type="veh_passenger" departSpeed=max/>
    <trip id="veh145" depart="106.80" from="59482100" to="1314588897" departLane=best type="veh_passenger"/>
    <trip id="veh146" depart="107.53" from="317617775#0" to="1422250839" departLane=best type="veh_passenger"/>
    <trip id="veh147" depart="108.27" from="-136017975#4" to="-232237171#2" departLane=best type="veh_passenger"/>
    <trip id="veh148" depart="109.01" from="309193891#1" to="558683371" departLane=best type="veh_passenger"/>
    <trip id="veh149" depart="109.74" from="558683367#2" to="-28535807#2" departLane=best type="veh_passenger"/>
    <trip id="veh150" depart="110.48" from="-28120400#10" to="-147561896#0" departLane=best type="veh_passenger"/>
    <trip id="veh151" depart="111.21" from="290639790#1" to="660092808" departLane=best type="veh_passenger"/>
    <trip id="veh152" depart="111.95" from="-655680596#2" to="232237171#2" departLane=best type="veh_passenger"/>
    <trip id="veh153" depart="112.69" from="-1427484094#1" to="694981023#0" departLane=best type="veh_passenger"/>
    <trip id="veh154" depart="113.42" from="310456192" to="655680597#1" departLane=best type="veh_passenger" departSpeed=max/>
    <trip id="veh155" depart="114.16" from="-1102829162" to="309194360" departLane=best type="veh_passenger" departSpeed=max/>
    <trip id="veh156" depart="114.90" from="-310667984#1" to="694981025" departLane=best type="veh_passenger" departSpeed=max/>
    <trip id="veh157" depart="115.63" from="309618845#4" to="559786861#0" departLane=best type="veh_passenger"/>
    <trip id="veh158" depart="116.37" from="310456192" to="-32266992#0" departLane=best type="veh_passenger" departSpeed=max/>
    <trip id="veh159" depart="117.11" from="291973732#1" to="-147575117" departLane=best type="veh_passenger"/>
    <trip id="veh160" depart="117.84" from="40693552#14" to="558679443" departLane=best type="veh_passenger"/>
    <trip id="veh161" depart="118.58" from="-27935868#3" to="377132617#2" departLane=best type="veh_passenger"/>
    <trip id="veh162" depart="119.32" from="-695684656" to="-544999271" departLane=best type="veh_passenger" departSpeed=max/>
    <trip id="veh163" depart="120.05" from="-1102829129" to="-28103484#3" departLane=best type="veh_passenger" departSpeed=max/>
    <trip id="veh164" depart="120.79" from="-310665124" to="559786863#0" departLane=best type="veh_passenger" departSpeed=max/>
    <trip id="veh165" depart="121.53" from="794634835#0" to="-393308178" departLane=best type="veh_passenger"/>
    <trip id="veh166" depart="122.26" from="1369156735" to="1101668236#1" departLane=best type="veh_passenger"/>
    <trip id="veh167" depart="123.00" from="81172816#0" to="128220188#2" departLane=best type="veh_passenger"/>
    <trip id="veh168" depart="123.74" from="694302731#0" to="-147575196#0" departLane=best type="veh_passenger" departSpeed=max/>
    <trip id="veh169" depart="124.47" from="799578802" to="-27936036#0" departLane=best type="veh_passenger" departSpeed=max/>
    <trip id="veh170" depart="125.21" from="794624015" to="-32266887#0" departLane=best type="veh_passenger"/>
    <trip id="veh171" depart="125.95" from="-123629099#1" to="1103093303" departLane=best type="veh_passenger"/>
    <trip id="veh172" depart="126.68" from="27935383#0" to="-559786863#3" departLane=best type="veh_passenger"/>
    <trip id="veh173" depart="127.42" from="128220108#3" to="123624213#17" departLane=best type="veh_passenger"/>
    <trip id="veh174" depart="128.15" from="-544949498#2" to="1392543572#1" departLane=best type="veh_passenger" departSpeed=max/>
    <trip id="veh175" depart="128.89" from="-28120439#0" to="28262948#0" departLane=best type="veh_passenger"/>
    <trip id="veh176" depart="129.63" from="-1063933802#3" to="694981012" departLane=best type="veh_passenger" departSpeed=max/>
    <trip id="veh177" depart="130.36" from="1109914026#4" to="291973719" departLane=best type="veh_passenger"/>
    <trip id="veh178" depart="131.10" from="27935981#0" to="27935902#1" departLane=best type="veh_passenger"/>
    <trip id="veh179" depart="131.84" from="-40693501#3" to="-128220131#0" departLane=best type="veh_passenger"/>
    <trip id="veh180" depart="132.57" from="147575159#1" to="-678335364#4" departLane=best type="veh_passenger"/>
    <trip id="veh181" depart="133.31" from="-310665078" to="491889862#2" departLane=best type="veh_passenger" departSpeed=max/>
    <trip id="veh182" depart="134.05" from="27934854#6" to="-459396044#0" departLane=best type="veh_passenger"/>
    <trip id="veh183" depart="134.78" from="-310665056" to="1101675583" departLane=best type="veh_passenger" departSpeed=max/>
    <trip id="veh184" depart="135.52" from="-628245636" to="-40696208" departLane=best type="veh_passenger" departSpeed=max/>
    <trip id="veh185" depart="136.26" from="-1292583899#1" to="1102833426#1" departLane=best type="veh_passenger"/>
    <trip id="veh186" depart="136.99" from="694335189" to="27936064" departLane=best type="veh_passenger" departSpeed=max/>
    <trip id="veh187" depart="137.73" from="59482034#0" to="229976721#6" departLane=best type="veh_passenger" departSpeed=max/>
    <trip id="veh188" depart="138.47" from="-310456181#0" to="1322924310#1" departLane=best type="veh_passenger"/>
    <trip id="veh189" depart="139.20" from="-1031629624" to="-40693538#1" departLane=best type="veh_passenger" departSpeed=max/>
    <trip id="veh190" depart="139.94" from="-694563652" to="1416769967-AddedOnRampEdge" departLane=best type="veh_passenger" departSpeed=max/>
    <trip id="veh191" depart="140.68" from="1427500127" to="111814614#6" departLane=best type="veh_passenger"/>
    <trip id="veh192" depart="141.41" from="-694563704#0" to="-291228867" departLane=best type="veh_passenger"/>
    <trip id="veh193" depart="142.15" from="-778475535#1" to="694302721" departLane=best type="veh_passenger"/>
    <trip id="veh194" depart="142.89" from="309193882#1" to="-27935848#3" departLane=best type="veh_passenger"/>
    <trip id="veh195" depart="143.62" from="-1196120516#2" to="123629036#3" departLane=best type="veh_passenger"/>
    <trip id="veh196" depart="144.36" from="1340257806#1" to="-692909359#1" departLane=best type="veh_passenger"/>
    <trip id="veh197" depart="145.09" from="310665107" to="310456173" departLane=best type="veh_passenger" departSpeed=max/>
    <trip id="veh198" depart="145.83" from="151676283#0" to="-309191365#7" departLane=best type="veh_passenger" departSpeed=max/>
    <trip id="veh199" depart="146.57" from="-254053182#1" to="-112462015#0" departLane=best type="veh_passenger"/>
    <trip id="veh200" depart="147.30" from="-28103494#4" to="1165662329" departLane=best type="veh_passenger"/>
    <trip id="veh201" depart="148.04" from="350096403#1" to="-128220182#0" departLane=best type="veh_passenger"/>
    <trip id="veh202" depart="148.78" from="-688444319" to="237089967#5" departLane=best type="veh_passenger"/>
    <trip id="veh203" depart="149.51" from="-24490736#0" to="28120400#10" departLane=best type="veh_passenger"/>
    <trip id="veh204" depart="150.25" from="-81254181#0" to="-310665081#1" departLane=best type="veh_passenger"/>
    <trip id="veh205" depart="150.99" from="147561889#0" to="-1101675580" departLane=best type="veh_passenger"/>
    <trip id="veh206" depart="151.72" from="27994380#4" to="310665089" departLane=best type="veh_passenger"/>
    <trip id="veh207" depart="152.46" from="-123629036#0" to="1102833438" departLane=best type="veh_passenger"/>
    <trip id="veh208" depart="153.20" from="-229976721#4" to="778475534" departLane=best type="veh_passenger"/>
    <trip id="veh209" depart="153.93" from="1099665396#3" to="-123624213#2" departLane=best type="veh_passenger"/>
    <trip id="veh210" depart="154.67" from="-28120323" to="491889864#1" departLane=best type="veh_passenger"/>
    <trip id="veh211" depart="155.41" from="-695251940#1" to="328436445#1" departLane=best type="veh_passenger" departSpeed=max/>
    <trip id="veh212" depart="156.14" from="147575187#8" to="81254204#1" departLane=best type="veh_passenger"/>
    <trip id="veh213" depart="156.88" from="123629187#2" to="744561214#2" departLane=best type="veh_passenger"/>
    <trip id="veh214" depart="157.62" from="544999262" to="229965238" departLane=best type="veh_passenger"/>
    <trip id="veh215" depart="158.35" from="27934854#0" to="1228773169" departLane=best type="veh_passenger"/>
    <trip id="veh216" depart="159.09" from="312063814#4" to="1322924310#0" departLane=best type="veh_passenger"/>
    <trip id="veh217" depart="159.83" from="-778898125" to="-317318168#4" departLane=best type="veh_passenger" departSpeed=max/>
    <trip id="veh218" depart="160.56" from="-28120255#2" to="24480656#1" departLane=best type="veh_passenger"/>
    <trip id="veh219" depart="161.30" from="28120403#1" to="123629185#0" departLane=best type="veh_passenger"/>
    <trip id="veh220" depart="162.03" from="133763765" to="-353379025#0" departLane=best type="veh_passenger"/>
    <trip id="veh221" depart="162.77" from="-1184187833" to="-40693534" departLane=best type="veh_passenger" departSpeed=max/>
    <trip id="veh222" depart="163.51" from="-291973721#19" to="-640876756#6" departLane=best type="veh_passenger"/>
    <trip id="veh223" depart="164.24" from="1109952142#0" to="-243896990#9" departLane=best type="veh_passenger"/>
    <trip id="veh224" depart="164.98" from="-27936072#2" to="28120257" departLane=best type="veh_passenger"/>
    <trip id="veh225" depart="165.72" from="24490736#2" to="-124825035#1" departLane=best type="veh_passenger"/>
    <trip id="veh226" depart="166.45" from="-656181226#1" to="1308999492#0" departLane=best type="veh_passenger" departSpeed=max/>
    <trip id="veh227" depart="167.19" from="-688635199#2" to="-28120491#4" departLane=best type="veh_passenger" departSpeed=max/>
    <trip id="veh228" depart="167.93" from="-694302719" to="694302729#1" departLane=best type="veh_passenger" departSpeed=max/>
    <trip id="veh229" depart="168.66" from="123624213#17" to="28120309#5" departLane=best type="veh_passenger"/>
    <trip id="veh230" depart="169.40" from="380707230#0" to="310665078" departLane=best type="veh_passenger"/>
    <trip id="veh231" depart="170.14" from="-413271593" to="-1101690258" departLane=best type="veh_passenger"/>
    <trip id="veh232" depart="170.87" from="-328436452" to="310456188" departLane=best type="veh_passenger" departSpeed=max/>
    <trip id="veh233" depart="171.61" from="377124828#2" to="744783934" departLane=best type="veh_passenger"/>
    <trip id="veh234" depart="172.35" from="-694302717" to="310456163" departLane=best type="veh_passenger" departSpeed=max/>
    <trip id="veh235" depart="173.08" from="112462014#0" to="148210028" departLane=best type="veh_passenger"/>
    <trip id="veh236" depart="173.82" from="-27935848#3" to="-291973734#4" departLane=best type="veh_passenger"/>
    <trip id="veh237" depart="174.56" from="-694563668#1" to="-1159872650#2" departLane=best type="veh_passenger"/>
    <trip id="veh238" depart="175.29" from="-31281091#14" to="27936940#4" departLane=best type="veh_passenger"/>
    <trip id="veh239" depart="176.03" from="-655062381#1" to="-27935788#4" departLane=best type="veh_passenger"/>
    <trip id="veh240" depart="176.77" from="-735135994#0" to="-232239392#1" departLane=best type="veh_passenger"/>
    <trip id="veh241" depart="177.50" from="1331889741" to="-1154009752" departLane=best type="veh_passenger"/>
    <trip id="veh242" depart="178.24" from="-558743551#2" to="1350362144#11" departLane=best type="veh_passenger"/>
    <trip id="veh243" depart="178.97" from="-1102833433" to="250768275#0" departLane=best type="veh_passenger" departSpeed=max/>
    <trip id="veh244" depart="179.71" from="-133647781#6" to="1110215096#1" departLane=best type="veh_passenger"/>
    <trip id="veh245" depart="180.45" from="-1109900554" to="-81254189#4" departLane=best type="veh_passenger" departSpeed=max/>
    <trip id="veh246" depart="181.18" from="-27935333#4" to="-661629043" departLane=best type="veh_passenger"/>