<?xml version="1.0" encoding="UTF-8"?>

<!-- generated on 2025-09-20 02:03:06.310595 by osmWebWizard.py v1_24_0+0000-b72eb3fabc8
<configuration>
    <net-file value="C:\Users\sujit\Desktop\SIH25\smart-traffic-system\2025-09-20-02-01-56\osm.net.xml.gz"/>
    <output-trip-file value="C:\Users\sujit\Desktop\SIH25\smart-traffic-system\2025-09-20-02-01-56\osm.passenger.trips.xml"/>
    <route-file value="C:\Users\sujit\Desktop\SIH25\smart-traffic-system\2025-09-20-02-01-56\osm.passenger.rou.xml"/>
    <prefix value="veh"/>
    <trip-attributes value="departLane=&quot;best&quot;"/>
    <fringe-start-attributes value="departSpeed=&quot;max&quot;"/>
    <vehicle-class value="passenger"/>
    <lanes value="True"/>
    <fringe-factor value="5"/>
    <allow-fringe.min-length value="1000.0"/>
    <edge-permission value="passenger"/>
    <via-edge-types value="highway.motorway,highway.motorway_link,highway.trunk_link,highway.primary_link,highway.secondary_link,highway.tertiary_link"/>
    <min-distance value="300.0"/>
    <min-distance.fringe value="10.0"/>
    <remove-loops value="True"/>
    <insertion-density value="12.0"/>
</configuration>
-->

<routes xmlns:xsi="http://www.w3.org/2001/XMLSchema-instance" xsi:noNamespaceSchemaLocation="http://sumo.dlr.de/xsd/routes_file.xsd">
    <vType id="veh_passenger" vClass="passenger"/>
    <trip id="veh0" depart="0.00" from="136017975#6" to="-112462015#1" departLane="best" type="veh_passenger"/>
    <trip id="veh1" depart="0.74" from="-291973730#6" to="-309190308" departLane="best" type="veh_passenger"/>
    <trip id="veh2" depart="1.47" from="27935848#2" to="27936042#0" departLane="best" type="veh_passenger"/>
    <trip id="veh3" depart="2.21" from="544999267" to="-133940680#1" departLane="best" type="veh_passenger" departSpeed="max"/>
    <trip id="veh4" depart="2.95" from="-694302725" to="-116061945#2" departLane="best" type="veh_passenger" departSpeed="max"/>
    <trip id="veh5" depart="3.68" from="-27935836#3" to="1228773170" departLane="best" type="veh_passenger"/>
    <trip id="veh6" depart="4.42" from="-1102833429" to="-28120400#7" departLane="best" type="veh_passenger" departSpeed="max"/>
    <trip id="veh7" depart="5.15" from="-27935848#4" to="147561899#5" departLane="best" type="veh_passenger"/>
    <trip id="veh8" depart="5.89" from="310456181#0" to="-1101690261" departLane="best" type="veh_passenger"/>
    <trip id="veh9" depart="6.63" from="309618856" to="28120410" departLane="best" type="veh_passenger"/>
    <trip id="veh10" depart="7.36" from="-32266743#1" to="-27935002#1" departLane="best" type="veh_passenger"/>
    <trip id="veh11" depart="8.10" from="-1227538297#0" to="-1391538488" departLane="best" type="veh_passenger"/>
    <trip id="veh12" depart="8.84" from="334652524#2" to="148210029" departLane="best" type="veh_passenger"/>
    <trip id="veh13" depart="9.57" from="310456166#0" to="309190307" departLane="best" type="veh_passenger"/>
    <trip id="veh14" depart="10.31" from="1109895159" to="800240405" departLane="best" type="veh_passenger" departSpeed="max"/>
    <trip id="veh15" depart="11.05" from="-40696212#0" to="133748880#4" departLane="best" type="veh_passenger"/>
    <trip id="veh16" depart="11.78" from="40693500" to="1392543572#3" departLane="best" type="veh_passenger" departSpeed="max"/>
    <trip id="veh17" depart="12.52" from="24490731#0" to="-1227566229#1" departLane="best" type="veh_passenger"/>
    <trip id="veh18" depart="13.26" from="-27936023#0" to="-40693548#0" departLane="best" type="veh_passenger"/>
    <trip id="veh19" depart="13.99" from="-1185468746" to="-309618845#9" departLane="best" type="veh_passenger" departSpeed="max"/>
    <trip id="veh20" depart="14.73" from="-1236087679#1" to="-38098070#1" departLane="best" type="veh_passenger" departSpeed="max"/>
    <trip id="veh21" depart="15.46" from="1350362144#9" to="-799715252" departLane="best" type="veh_passenger"/>
    <trip id="veh22" depart="16.20" from="-40693536#4" to="-28535795" departLane="best" type="veh_passenger"/>
    <trip id="veh23" depart="16.94" from="-291228868" to="695251940#1" departLane="best" type="veh_passenger" departSpeed="max"/>
    <trip id="veh24" depart="17.67" from="1392543572#6" to="164040895#0" departLane="best" type="veh_passenger"/>
    <trip id="veh25" depart="18.41" from="-147575198#3" to="309190304#0" departLane="best" type="veh_passenger"/>
    <trip id="veh26" depart="19.15" from="-147575144#1" to="-81254189#9" departLane="best" type="veh_passenger"/>
    <trip id="veh27" depart="19.88" from="81254206#0" to="24490733" departLane="best" type="veh_passenger"/>
    <trip id="veh28" depart="20.62" from="1182178611" to="27994446#0" departLane="best" type="veh_passenger"/>
    <trip id="veh29" depart="21.36" from="32267142#0" to="310665112#2" departLane="best" type="veh_passenger"/>
    <trip id="veh30" depart="22.09" from="-27936029#0" to="-1183377618" departLane="best" type="veh_passenger"/>
    <trip id="veh31" depart="22.83" from="-310665081#0" to="-32267142#1" departLane="best" type="veh_passenger"/>
    <trip id="veh32" depart="23.56" from="-27935326#4" to="696064749" departLane="best" type="veh_passenger"/>
    <trip id="veh33" depart="24.30" from="40696206#0" to="-59482034#1" departLane="best" type="veh_passenger"/>
    <trip id="veh34" depart="25.04" from="147561888#2" to="1066405076" departLane="best" type="veh_passenger"/>
    <trip id="veh35" depart="25.77" from="654180127#0" to="1110190793" departLane="best" type="veh_passenger"/>
    <trip id="veh36" depart="26.51" from="-290639793#10" to="-310665101#1" departLane="best" type="veh_passenger"/>
    <trip id="veh37" depart="27.25" from="1196120487" to="-32266743#4" departLane="best" type="veh_passenger"/>
    <trip id="veh38" depart="27.98" from="123624213#3" to="694302715" departLane="best" type="veh_passenger"/>
    <trip id="veh39" depart="28.72" from="-60194989#4" to="-291973735" departLane="best" type="veh_passenger"/>
    <trip id="veh40" depart="29.46" from="995122820" to="1236087679#1" departLane="best" type="veh_passenger" departSpeed="max"/>
    <trip id="veh41" depart="30.19" from="309190306" to="1102833433" departLane="best" type="veh_passenger" departSpeed="max"/>
    <trip id="veh42" depart="30.93" from="-1110211978" to="-81254203" departLane="best" type="veh_passenger" departSpeed="max"/>
    <trip id="veh43" depart="31.66" from="97187758" to="1254626825" departLane="best" type="veh_passenger"/>
    <trip id="veh44" depart="32.40" from="799592387" to="558683371" departLane="best" type="veh_passenger" departSpeed="max"/>
    <trip id="veh45" depart="33.14" from="-1101675540" to="291973721#14" departLane="best" type="veh_passenger" departSpeed="max"/>
    <trip id="veh46" depart="33.87" from="229976708#5" to="128220208#4" departLane="best" type="veh_passenger"/>
    <trip id="veh47" depart="34.61" from="-291228868" to="24490736#3" departLane="best" type="veh_passenger" departSpeed="max"/>
    <trip id="veh48" depart="35.35" from="-694981037" to="744806547" departLane="best" type="veh_passenger" departSpeed="max"/>
    <trip id="veh49" depart="36.08" from="40696203#0" to="-32266753#3" departLane="best" type="veh_passenger"/>
    <trip id="veh50" depart="36.82" from="-81254206#1" to="-27936039#1" departLane="best" type="veh_passenger" departSpeed="max"/>
    <trip id="veh51" depart="37.56" from="631197944#0" to="610166550#10" departLane="best" type="veh_passenger"/>
    <trip id="veh52" depart="38.29" from="-310456170" to="24490731#5" departLane="best" type="veh_passenger" departSpeed="max"/>
    <trip id="veh53" depart="39.03" from="128220170#2" to="-27934854#9" departLane="best" type="veh_passenger"/>
    <trip id="veh54" depart="39.77" from="290638884#0" to="125862470#1" departLane="best" type="veh_passenger"/>
    <trip id="veh55" depart="40.50" from="-1101696108" to="694981019" departLane="best" type="veh_passenger" departSpeed="max"/>
    <trip id="veh56" depart="41.24" from="40696214#0" to="40693543#1" departLane="best" type="veh_passenger"/>
    <trip id="veh57" depart="41.97" from="40696211" to="727364339" departLane="best" type="veh_passenger" departSpeed="max"/>
    <trip id="veh58" depart="42.71" from="-1196120540" to="1196120512#0" departLane="best" type="veh_passenger" departSpeed="max"/>
    <trip id="veh59" depart="43.45" from="-112462016#3" to="310665055" departLane="best" type="veh_passenger"/>
    <trip id="veh60" depart="44.18" from="28120403#0" to="-233128998#2" departLane="best" type="veh_passenger"/>
    <trip id="veh61" depart="44.92" from="-794381851" to="1335927786#3" departLane="best" type="veh_passenger" departSpeed="max"/>
    <trip id="veh62" depart="45.66" from="-290639793#3" to="610166550#6" departLane="best" type="veh_passenger"/>
    <trip id="veh63" depart="46.39" from="1109914918" to="309190307" departLane="best" type="veh_passenger"/>
    <trip id="veh64" depart="47.13" from="-27934512#0" to="-558743551#2" departLane="best" type="veh_passenger"/>
    <trip id="veh65" depart="47.87" from="886485940#0" to="27934730#4" departLane="best" type="veh_passenger"/>
    <trip id="veh66" depart="48.60" from="-128220108#2" to="-309191367#1" departLane="best" type="veh_passenger"/>
    <trip id="veh67" depart="49.34" from="-317617775#3" to="147561896#3" departLane="best" type="veh_passenger"/>
    <trip id="veh68" depart="50.07" from="-27936042#0" to="-291973742#1" departLane="best" type="veh_passenger"/>
    <trip id="veh69" depart="50.81" from="-1150869431#1" to="237089975#0" departLane="best" type="veh_passenger"/>
    <trip id="veh70" depart="51.55" from="-27936025#1" to="694335184" departLane="best" type="veh_passenger"/>
    <trip id="veh71" depart="52.28" from="383732625#0" to="-128220148#0" departLane="best" type="veh_passenger"/>
    <trip id="veh72" depart="53.02" from="-27994446#1" to="27935889#0" departLane="best" type="veh_passenger"/>
    <trip id="veh73" depart="53.76" from="-27935459" to="-237089966#0" departLane="best" type="veh_passenger" departSpeed="max"/>
    <trip id="veh74" depart="54.49" from="694302708" to="1369156733#0" departLane="best" type="veh_passenger"/>
    <trip id="veh75" depart="55.23" from="-778475534" to="310667988#1" departLane="best" type="veh_passenger" departSpeed="max"/>
    <trip id="veh76" depart="55.97" from="310456167#1" to="-28103474#4" departLane="best" type="veh_passenger"/>
    <trip id="veh77" depart="56.70" from="27935419#1" to="27935999#1" departLane="best" type="veh_passenger"/>
    <trip id="veh78" depart="57.44" from="81254183#12" to="-1427462049" departLane="best" type="veh_passenger"/>
    <trip id="veh79" depart="58.17" from="-640876756#0" to="-694335186#0" departLane="best" type="veh_passenger"/>
    <trip id="veh80" depart="58.91" from="40693500" to="-310665112#0" departLane="best" type="veh_passenger" departSpeed="max"/>
    <trip id="veh81" depart="59.65" from="-694302725" to="-383732626" departLane="best" type="veh_passenger" departSpeed="max"/>
    <trip id="veh82" depart="60.38" from="-28120400#4" to="694981005" departLane="best" type="veh_passenger"/>
    <trip id="veh83" depart="61.12" from="-694981005" to="558743551#0" departLane="best" type="veh_passenger" departSpeed="max"/>
    <trip id="veh84" depart="61.86" from="1150869431#2" to="-123624213#5" departLane="best" type="veh_passenger"/>
    <trip id="veh85" depart="62.59" from="995122863" to="40696194#1" departLane="best" type="veh_passenger" departSpeed="max"/>
    <trip id="veh86" depart="63.33" from="343683208#3" to="-27935818#1" departLane="best" type="veh_passenger"/>
    <trip id="veh87" depart="64.07" from="-800240405" to="-291228867" departLane="best" type="veh_passenger" departSpeed="max"/>
    <trip id="veh88" depart="64.80" from="-40696212#2" to="81254189#8" departLane="best" type="veh_passenger" departSpeed="max"/>
    <trip id="veh89" depart="65.54" from="-290639793#6" to="310667984#1" departLane="best" type="veh_passenger"/>
    <trip id="veh90" depart="66.28" from="-694981041#1" to="1102833435" departLane="best" type="veh_passenger" departSpeed="max"/>
    <trip id="veh91" depart="67.01" from="744561216#3" to="970276328" departLane="best" type="veh_passenger"/>
    <trip id="veh92" depart="67.75" from="1165661287#0" to="291973715#2" departLane="best" type="veh_passenger"/>
    <trip id="veh93" depart="68.48" from="-1427484874#0" to="-40696211" departLane="best" type="veh_passenger"/>
    <trip id="veh94" depart="69.22" from="799565065#0" to="1411121774#3" departLane="best" type="veh_passenger"/>
    <trip id="veh95" depart="69.96" from="1110178624#1" to="310456163" departLane="best" type="veh_passenger"/>
    <trip id="veh96" depart="70.69" from="-1109913567" to="1427478016#0" departLane="best" type="veh_passenger" departSpeed="max"/>
    <trip id="veh97" depart="71.43" from="-81609309#0" to="544949498#1" departLane="best" type="veh_passenger"/>
    <trip id="veh98" depart="72.17" from="-147561896#3" to="794381851" departLane="best" type="veh_passenger"/>
    <trip id="veh99" depart="72.90" from="-1185484641" to="-27994386#4" departLane="best" type="veh_passenger" departSpeed="max"/>
    <trip id="veh100" depart="73.64" from="-27994380#15" to="-222798629#0" departLane="best" type="veh_passenger"/>
    <trip id="veh101" depart="74.38" from="500860056#3" to="-310665099#0" departLane="best" type="veh_passenger"/>
    <trip id="veh102" depart="75.11" from="-694302718" to="1427462048" departLane="best" type="veh_passenger" departSpeed="max"/>
    <trip id="veh103" depart="75.85" from="1101690264" to="694981038" departLane="best" type="veh_passenger" departSpeed="max"/>
    <trip id="veh104" depart="76.58" from="-27934854#9" to="291228866" departLane="best" type="veh_passenger"/>
    <trip id="veh105" depart="77.32" from="-27994464#2" to="1066915263#0" departLane="best" type="veh_passenger"/>
    <trip id="veh106" depart="78.06" from="150510724#1" to="-459396044#0" departLane="best" type="veh_passenger"/>
    <trip id="veh107" depart="78.79" from="-310665085#1" to="310456177#1" departLane="best" type="veh_passenger"/>
    <trip id="veh108" depart="79.53" from="-1157593827" to="1110178624#2" departLane="best" type="veh_passenger" departSpeed="max"/>
    <trip id="veh109" depart="80.27" from="995122857" to="970812531" departLane="best" type="veh_passenger"/>
    <trip id="veh110" depart="81.00" from="-116061945#1" to="-290639912#4" departLane="best" type="veh_passenger"/>
    <trip id="veh111" depart="81.74" from="-290639793#6" to="694981030" departLane="best" type="veh_passenger"/>
    <trip id="veh112" depart="82.48" from="443045597#1" to="655062385" departLane="best" type="veh_passenger"/>
    <trip id="veh113" depart="83.21" from="-40693535#0" to="-27935203#2" departLane="best" type="veh_passenger"/>
    <trip id="veh114" depart="83.95" from="317318168#3" to="28120450" departLane="best" type="veh_passenger"/>
    <trip id="veh115" depart="84.69" from="128220214#0" to="81254201#1" departLane="best" type="veh_passenger"/>
    <trip id="veh116" depart="85.42" from="1427484095" to="-1101690267" departLane="best" type="veh_passenger"/>
    <trip id="veh117" depart="86.16" from="310665098#0" to="-449441313#1" departLane="best" type="veh_passenger" departSpeed="max"/>
    <trip id="veh118" depart="86.89" from="147575142#3" to="695251944#2" departLane="best" type="veh_passenger"/>
    <trip id="veh119" depart="87.63" from="-133524199#6" to="-147575196#2" departLane="best" type="veh_passenger"/>
    <trip id="veh120" depart="88.37" from="-291973721#24" to="148210029" departLane="best" type="veh_passenger" departSpeed="max"/>
    <trip id="veh121" depart="89.10" from="27934516#2" to="-28120439#10" departLane="best" type="veh_passenger"/>
    <trip id="veh122" depart="89.84" from="-800240421" to="694335184" departLane="best" type="veh_passenger" departSpeed="max"/>
    <trip id="veh123" depart="90.58" from="334455496#6" to="-135538057#1" departLane="best" type="veh_passenger"/>
    <trip id="veh124" depart="91.31" from="-1099665398" to="310665094" departLane="best" type="veh_passenger"/>
    <trip id="veh125" depart="92.05" from="135532011#3" to="-322022988#9" departLane="best" type="veh_passenger"/>
    <trip id="veh126" depart="92.79" from="27935971#1" to="133748880#1" departLane="best" type="veh_passenger"/>
    <trip id="veh127" depart="93.52" from="-694335195" to="-1101690301" departLane="best" type="veh_passenger" departSpeed="max"/>
    <trip id="veh128" depart="94.26" from="-1183377619" to="658055096" departLane="best" type="veh_passenger" departSpeed="max"/>
    <trip id="veh129" depart="94.99" from="59482082#4" to="1314588897" departLane="best" type="veh_passenger"/>
    <trip id="veh130" depart="95.73" from="317318171" to="1422250839" departLane="best" type="veh_passenger"/>
    <trip id="veh131" depart="96.47" from="-136017975#5" to="-232237171#2" departLane="best" type="veh_passenger"/>
    <trip id="veh132" depart="97.20" from="309193882#1" to="558683371" departLane="best" type="veh_passenger"/>
    <trip id="veh133" depart="97.94" from="558683367#0" to="-28535816#0" departLane="best" type="veh_passenger"/>
    <trip id="veh134" depart="98.68" from="-28120400#12" to="-147561896#0" departLane="best" type="veh_passenger"/>
    <trip id="veh135" depart="99.41" from="290638884#9" to="660092808" departLane="best" type="veh_passenger"/>
    <trip id="veh136" depart="100.15" from="-655680597#2" to="232239392#0" departLane="best" type="veh_passenger"/>
    <trip id="veh137" depart="100.89" from="-1427484094#1" to="694981022" departLane="best" type="veh_passenger"/>
    <trip id="veh138" depart="101.62" from="310456192" to="655680596#3" departLane="best" type="veh_passenger" departSpeed="max"/>
    <trip id="veh139" depart="102.36" from="-1102829162" to="309194360" departLane="best" type="veh_passenger" departSpeed="max"/>
    <trip id="veh140" depart="103.09" from="-310667984#1" to="694981025" departLane="best" type="veh_passenger" departSpeed="max"/>
    <trip id="veh141" depart="103.83" from="309618845#3" to="559785242#4" departLane="best" type="veh_passenger"/>
    <trip id="veh142" depart="104.57" from="310456192" to="-32266992#2" departLane="best" type="veh_passenger" departSpeed="max"/>
    <trip id="veh143" depart="105.30" from="291973732#0" to="-147575119#0" departLane="best" type="veh_passenger"/>
    <trip id="veh144" depart="106.04" from="40693552#13" to="558679443" departLane="best" type="veh_passenger"/>
    <trip id="veh145" depart="106.78" from="-27935889#1" to="377132617#2" departLane="best" type="veh_passenger"/>
    <trip id="veh146" depart="107.51" from="-695684657" to="-544999271" departLane="best" type="veh_passenger" departSpeed="max"/>
    <trip id="veh147" depart="108.25" from="309191381" to="-309193964#0" departLane="best" type="veh_passenger"/>
    <trip id="veh148" depart="108.99" from="-1102829129" to="-28103494#0" departLane="best" type="veh_passenger" departSpeed="max"/>
    <trip id="veh149" depart="109.72" from="-310665124" to="559786861#2" departLane="best" type="veh_passenger" departSpeed="max"/>
    <trip id="veh150" depart="110.46" from="794634835#0" to="-393308178" departLane="best" type="veh_passenger"/>
    <trip id="veh151" depart="111.20" from="1370791079#1" to="1101668236#2" departLane="best" type="veh_passenger"/>
    <trip id="veh152" depart="111.93" from="81172814#2" to="128220188#2" departLane="best" type="veh_passenger"/>
    <trip id="veh153" depart="112.67" from="799578802" to="-27936036#2" departLane="best" type="veh_passenger" departSpeed="max"/>
    <trip id="veh154" depart="113.40" from="794624014" to="-32266887#2" departLane="best" type="veh_passenger"/>
    <trip id="veh155" depart="114.14" from="27935375" to="-571697355#0" departLane="best" type="veh_passenger" departSpeed="max"/>
    <trip id="veh156" depart="114.88" from="128220108#3" to="123624213#17" departLane="best" type="veh_passenger"/>
    <trip id="veh157" depart="115.61" from="-544999265" to="1392543572#1" departLane="best" type="veh_passenger"/>
    <trip id="veh158" depart="116.35" from="-28120439#10" to="28187982#8" departLane="best" type="veh_passenger"/>
    <trip id="veh159" depart="117.09" from="-1063933802#3" to="694981011#1" departLane="best" type="veh_passenger" departSpeed="max"/>
    <trip id="veh160" depart="117.82" from="1109914028" to="291973718#1" departLane="best" type="veh_passenger"/>
    <trip id="veh161" depart="118.56" from="27935979#5" to="27935900#1" departLane="best" type="veh_passenger"/>
    <trip id="veh162" depart="119.30" from="-40693502#1" to="-128220131#0" departLane="best" type="veh_passenger"/>
    <trip id="veh163" depart="120.03" from="147575159#2" to="-688364753#1" departLane="best" type="veh_passenger"/>
    <trip id="veh164" depart="120.77" from="-310665078" to="491889862#1" departLane="best" type="veh_passenger" departSpeed="max"/>
    <trip id="veh165" depart="121.50" from="27934854#2" to="-459396044#1" departLane="best" type="veh_passenger"/>
    <trip id="veh166" depart="122.24" from="-310665056" to="1101690257" departLane="best" type="veh_passenger" departSpeed="max"/>
    <trip id="veh167" depart="122.98" from="-628245636" to="-40696208" departLane="best" type="veh_passenger" departSpeed="max"/>
    <trip id="veh168" depart="123.71" from="-1292583899#1" to="1102833427" departLane="best" type="veh_passenger"/>
    <trip id="veh169" depart="124.45" from="59482034#0" to="229976721#7" departLane="best" type="veh_passenger" departSpeed="max"/>
    <trip id="veh170" depart="125.19" from="-310456182" to="1322924310#1" departLane="best" type="veh_passenger" departSpeed="max"/>
    <trip id="veh171" depart="125.92" from="-1031629624" to="-40693538#2" departLane="best" type="veh_passenger" departSpeed="max"/>
    <trip id="veh172" depart="126.66" from="-694563653#0" to="1416769967-AddedOnRampEdge" departLane="best" type="veh_passenger"/>
    <trip id="veh173" depart="127.40" from="147561888#0" to="1118275525" departLane="best" type="veh_passenger" departSpeed="max"/>
    <trip id="veh174" depart="128.13" from="-694563705#2" to="-291228867" departLane="best" type="veh_passenger"/>
    <trip id="veh175" depart="128.87" from="-778898123" to="694302721" departLane="best" type="veh_passenger" departSpeed="max"/>
    <trip id="veh176" depart="129.60" from="309193881#1" to="-27935848#4" departLane="best" type="veh_passenger"/>
    <trip id="veh177" depart="130.34" from="1340257806#4" to="-694302714" departLane="best" type="veh_passenger"/>
    <trip id="veh178" depart="131.08" from="310665107" to="310456172#1" departLane="best" type="veh_passenger" departSpeed="max"/>
    <trip id="veh179" depart="131.81" from="151676283#0" to="-309191367#1" departLane="best" type="veh_passenger" departSpeed="max"/>
    <trip id="veh180" depart="132.55" from="-254053185#1" to="-112462015#0" departLane="best" type="veh_passenger"/>
    <trip id="veh181" depart="133.29" from="-28103494#7" to="1165663724" departLane="best" type="veh_passenger"/>
    <trip id="veh182" depart="134.02" from="350096403#1" to="-128220182#1" departLane="best" type="veh_passenger"/>
    <trip id="veh183" depart="134.76" from="-688635198#1" to="237089967#5" departLane="best" type="veh_passenger"/>
    <trip id="veh184" depart="135.50" from="-24490736#1" to="28120331" departLane="best" type="veh_passenger"/>
    <trip id="veh185" depart="136.23" from="-81254181#1" to="-310665081#3" departLane="best" type="veh_passenger" departSpeed="max"/>
    <trip id="veh186" depart="136.97" from="147561889#3" to="-1101675580" departLane="best" type="veh_passenger"/>
    <trip id="veh187" depart="137.71" from="27994380#20" to="310665088" departLane="best" type="veh_passenger"/>
    <trip id="veh188" depart="138.44" from="-229976721#6" to="778475534" departLane="best" type="veh_passenger"/>
    <trip id="veh189" depart="139.18" from="1100616693#1" to="-123624213#2" departLane="best" type="veh_passenger"/>
    <trip id="veh190" depart="139.91" from="-28120331" to="491889863#1" departLane="best" type="veh_passenger"/>
    <trip id="veh191" depart="140.65" from="-695251940#1" to="323642595#6" departLane="best" type="veh_passenger" departSpeed="max"/>
    <trip id="veh192" depart="141.39" from="147575192#0" to="81254204#1" departLane="best" type="veh_passenger"/>
    <trip id="veh193" depart="142.12" from="519734960" to="229965238" departLane="best" type="veh_passenger"/>
    <trip id="veh194" depart="142.86" from="27934738#2" to="1228773169" departLane="best" type="veh_passenger"/>
    <trip id="veh195" depart="143.60" from="312063814#4" to="1322924310#1" departLane="best" type="veh_passenger"/>
    <trip id="veh196" depart="144.33" from="-784730134" to="-317318170#0" departLane="best" type="veh_passenger"/>
    <trip id="veh197" depart="145.07" from="-28120264" to="24480656#1" departLane="best" type="veh_passenger"/>
    <trip id="veh198" depart="145.81" from="133763765" to="-353379025#4" departLane="best" type="veh_passenger"/>
    <trip id="veh199" depart="146.54" from="-1184187833" to="-40693535#1" departLane="best" type="veh_passenger" departSpeed="max"/>
    <trip id="veh200" depart="147.28" from="-291973721#20" to="-654180130" departLane="best" type="veh_passenger"/>
    <trip id="veh201" depart="148.01" from="1109968031#0" to="-24488891#0" departLane="best" type="veh_passenger"/>
    <trip id="veh202" depart="148.75" from="-27936083" to="28120255#1" departLane="best" type="veh_passenger"/>
    <trip id="veh203" depart="149.49" from="24490737" to="-124825035#1" departLane="best" type="veh_passenger"/>
    <trip id="veh204" depart="150.22" from="-656620238" to="1308999492#0" departLane="best" type="veh_passenger"/>
    <trip id="veh205" depart="150.96" from="-688884618" to="-28120491#5" departLane="best" type="veh_passenger"/>
    <trip id="veh206" depart="151.70" from="123624213#17" to="28120309#5" departLane="best" type="veh_passenger"/>
    <trip id="veh207" depart="152.43" from="380707230#0" to="310665078" departLane="best" type="veh_passenger"/>
    <trip id="veh208" depart="153.17" from="-422904034" to="-1101690258" departLane="best" type="veh_passenger"/>
    <trip id="veh209" depart="153.91" from="-328436452" to="310456185" departLane="best" type="veh_passenger" departSpeed="max"/>
    <trip id="veh210" depart="154.64" from="377124828#2" to="744783934" departLane="best" type="veh_passenger"/>
    <trip id="veh211" depart="155.38" from="-694302718" to="310456162" departLane="best" type="veh_passenger" departSpeed="max"/>
    <trip id="veh212" depart="156.12" from="-27935848#5" to="-291973735" departLane="best" type="veh_passenger"/>
    <trip id="veh213" depart="156.85" from="-694563668#3" to="-1159872650#2" departLane="best" type="veh_passenger"/>
    <trip id="veh214" depart="157.59" from="-31281091#3" to="27936940#3" departLane="best" type="veh_passenger"/>
    <trip id="veh215" depart="158.32" from="-655507173#1" to="-27935788#5" departLane="best" type="veh_passenger"/>
    <trip id="veh216" depart="159.06" from="-735135994#3" to="-232239392#7" departLane="best" type="veh_passenger"/>
    <trip id="veh217" depart="159.80" from="-558753189" to="1350362144#11" departLane="best" type="veh_passenger" departSpeed="max"/>
    <trip id="veh218" depart="160.53" from="-1102833433" to="250768275#1" departLane="best" type="veh_passenger" departSpeed="max"/>
    <trip id="veh219" depart="161.27" from="-133647781#6" to="1110220267" departLane="best" type="veh_passenger"/>
    <trip id="veh220" depart="162.01" from="-1109900554" to="-81254189#6" departLane="best" type="veh_passenger" departSpeed="max"/>
    <trip id="veh221" depart="162.74" from="-27935349" to="-661629043" departLane="best" type="veh_passenger"/>
    <trip id="veh222" depart="163.48" from="28120245#3" to="-81254189#6" departLane="best" type="veh_passenger"/>
    <trip id="veh223" depart="164.22" from="27994386#10" to="40693543#3" departLane="best" type="veh_passenger"/>
    <trip id="veh224" depart="164.95" from="-28120427#2" to="-1322924310#1" departLane="best" type="veh_passenger"/>
    <trip id="veh225" depart="165.69" from="-1101696108" to="1292043921#0" departLane="best" type="veh_passenger" departSpeed="max"/>
    <trip id="veh226" depart="166.42" from="995198105#0" to="-699331220" departLane="best" type="veh_passenger"/>
    <trip id="veh227" depart="167.16" from="1421952753#0" to="310665596" departLane="best" type="veh_passenger"/>
    <trip id="veh228" depart="167.90" from="1422945745#1" to="310456189" departLane="best" type="veh_passenger"/>
    <trip id="veh229" depart="168.63" from="694981041#0" to="-28120403#2" departLane="best" type="veh_passenger" departSpeed="max"/>
    <trip id="veh230" depart="169.37" from="-1101696110" to="-27934854#3" departLane="best" type="veh_passenger" departSpeed="max"/>
    <trip id="veh231" depart="170.11" from="-128220217#0" to="27935891#1" departLane="best" type="veh_passenger"/>
    <trip id="veh232" depart="170.84" from="1196120508" to="-291973730#7" departLane="best" type="veh_passenger" departSpeed="max"/>
    <trip id="veh233" depart="171.58" from="243553548#0" to="310665080#1" departLane="best" type="veh_passenger"/>
    <trip id="veh234" depart="172.32" from="-147575187#1" to="160333099#5" departLane="best" type="veh_passenger"/>
    <trip id="veh235" depart="173.05" from="27936911#1" to="-147575192#5" departLane="best" type="veh_passenger"/>
    <trip id="veh236" depart="173.79" from="310665108" to="794634828#0" departLane="best" type="veh_passenger" departSpeed="max"/>
    <trip id="veh237" depart="174.52" from="-310665062" to="27936060#1" departLane="best" type="veh_passenger" departSpeed="max"/>
    <trip id="veh238" depart="175.26" from="758706019" to="1098469008#0" departLane="best" type="veh_passenger"/>
    <trip id="veh239" depart="176.00" from="262859972#3" to="-1282215184" departLane="best" type="veh_passenger"/>