<?xml version="1.0" encoding="UTF-8"?>

<!-- generated on 2025-09-20 02:02:15.267559 by $Id: ptlines2flows.py v1_3_1+0313-ccb31df3eb jakob.erdmann@dlr.de 2019-09-02 13:26:32 +0200 $ v1_24_0+0000-b72eb3fabc8
<configuration>
    <net-file value="C:\Users\sujit\Desktop\SIH25\smart-traffic-system\2025-09-20-02-01-56\osm.net.xml.gz"/>
    <ptlines-file value="C:\Users\sujit\Desktop\SIH25\smart-traffic-system\2025-09-20-02-01-56\osm_ptlines.xml"/>
    <ptstops-file value="C:\Users\sujit\Desktop\SIH25\smart-traffic-system\2025-09-20-02-01-56\osm_stops.add.xml"/>
    <output-file value="C:\Users\sujit\Desktop\SIH25\smart-traffic-system\2025-09-20-02-01-56\osm_pt.rou.xml"/>
    <stopinfos-file value="C:\Users\sujit\Desktop\SIH25\smart-traffic-system\2025-09-20-02-01-56\stopinfos.xml"/>
    <routes-file value="C:\Users\sujit\Desktop\SIH25\smart-traffic-system\2025-09-20-02-01-56\vehroutes.xml"/>
    <trips-file value="C:\Users\sujit\Desktop\SIH25\smart-traffic-system\2025-09-20-02-01-56\trips.trips.xml"/>
    <min-stops value="0"/>
    <extend-to-fringe value="True"/>
    <random-begin value="True"/>
    <seed value="42"/>
    <ignore-errors value="True"/>
    <vtype-prefix value="pt_"/>
    <verbose value="True"/>
</configuration>
-->

<routes xmlns:xsi="http://www.w3.org/2001/XMLSchema-instance" xsi:noNamespaceSchemaLocation="http://sumo.dlr.de/xsd/routes_file.xsd">
    <vType id="pt_bus" vClass="bus" speedFactor="0.95"/>
    <vType id="pt_tram" vClass="tram" speedFactor="1.0"/>
    <vType id="pt_train" vClass="rail"/>
    <vType id="pt_subway" vClass="subway"/>
    <vType id="pt_light_rail" vClass="rail_urban"/>
    <vType id="pt_monorail" vClass="rail_urban"/>
    <vType id="pt_trolleybus" vClass="bus" speedFactor="0.95"/>
    <vType id="pt_minibus" vClass="bus" speedFactor="0.95"/>
    <vType id="pt_share_taxi" vClass="taxi" speedFactor="0.95"/>
    <vType id="pt_aerialway" vClass="cable_car" length="2.5" width="2" personCapacity="4"/>
    <vType id="pt_ferry" vClass="ship"/>
    <trip id="0_bus_HSR-FDR-1:0" type="pt_bus" depart="15.0" departLane="best" from="1196120502#0" to="-1196120452">
        <stop busStop="11099858549" duration="30"/>  <!-- Indian Oil -->
        <stop busStop="11099858547" duration="30"/>  <!-- None -->
        <stop busStop="11099858548" duration="30"/>  <!-- None -->
        <stop busStop="11099858545" duration="30"/>  <!-- 19th Main -->
        <stop busStop="11099858543" duration="30"/>  <!-- None -->
        <stop busStop="11099858544" duration="30"/>  <!-- None -->
        <stop busStop="11099858541" duration="30"/>  <!-- 14th Main Road -->
        <stop busStop="11099858539" duration="30"/>  <!-- 9th Main -->
        <stop busStop="11099858537" duration="30"/>  <!-- 5th Main Road -->
        <stop busStop="11099858538" duration="30"/>  <!-- 5th Main -->
        <stop busStop="5928050269" duration="30"/>  <!-- Salarpuria Serenity -->
        <stop busStop="-11099858534" duration="30"/>  <!-- Mangammanapalya -->
        <stop busStop="11099858532" duration="30"/>  <!-- None -->
        <stop busStop="11099858533" duration="30"/>  <!-- None -->
        <stop busStop="-11099858530" duration="30"/>  <!-- HSR Club -->
        <stop busStop="-11099858528" duration="30"/>  <!-- None -->
        <stop busStop="-11099858529" duration="30"/>  <!-- None -->
    </trip>
    <trip id="1_bus_201Q:0" type="pt_bus" depart="133.0" departLane="best" from="92196679#0" to="40696219#1">
        <stop busStop="2402577150" duration="30"/>  <!-- Krupanidi College -->
        <stop busStop="1473298101" duration="30"/>  <!-- Madiwala Market -->
        <stop busStop="10043935992" duration="30"/>  <!-- Madiwala -->
    </trip>
    <trip id="2_subway_Yellow:0" type="pt_subway" depart="165.0" departLane="best" from="607901273" to="607901273">
        <stop busStop="13046007572" duration="30"/>  <!-- Bommanahalli -->
        <stop busStop="12040966324" duration="30"/>  <!-- Central Silk Board -->
        <stop busStop="13046007576" duration="30"/>  <!-- BTM Layout -->
    </trip>
    <trip id="3_subway_Yellow:1" type="pt_subway" depart="383.0" departLane="best" from="1299917516" to="1299917516">
        <stop busStop="13046007575" duration="30"/>  <!-- BTM Layout -->
        <stop busStop="13046007574" duration="30"/>  <!-- Central Silk Board -->
        <stop busStop="13046007573" duration="30"/>  <!-- Bommanahalli -->
    </trip>
    <trip id="4_bus_362C:0" type="pt_bus" depart="441.0" departLane="best" from="150510724#1" to="229965238">
        <stop busStop="2402577150" duration="30"/>  <!-- Krupanidi College -->
        <stop busStop="1473298101" duration="30"/>  <!-- Madiwala Market -->
        <stop busStop="1723780077" duration="30"/>  <!-- Roopena Agrahara -->
    </trip>
</routes>
