<?xml version="1.0" encoding="UTF-8"?>

<!-- generated on 2025-09-20 21:35:41.906997 by osmWebWizard.py v1_24_0+0000-b72eb3fabc8
<configuration>
    <net-file value="C:\Users\sujit\Sumo\2025-09-20-21-35-29\osm.net.xml.gz"/>
    <output-trip-file value="C:\Users\sujit\Sumo\2025-09-20-21-35-29\osm.passenger.trips.xml"/>
    <route-file value="C:\Users\sujit\Sumo\2025-09-20-21-35-29\osm.passenger.rou.xml"/>
    <prefix value="veh"/>
    <trip-attributes value="departLane=&quot;best&quot;"/>
    <fringe-start-attributes value="departSpeed=&quot;max&quot;"/>
    <vehicle-class value="passenger"/>
    <lanes value="True"/>
    <fringe-factor value="5"/>
    <allow-fringe.min-length value="1000.0"/>
    <edge-permission value="passenger"/>
    <via-edge-types value="highway.motorway,highway.motorway_link,highway.trunk_link,highway.primary_link,highway.secondary_link,highway.tertiary_link"/>
    <min-distance value="300.0"/>
    <min-distance.fringe value="10.0"/>
    <remove-loops value="True"/>
    <insertion-density value="12.0"/>
</configuration>
-->

<routes xmlns:xsi="http://www.w3.org/2001/XMLSchema-instance" xsi:noNamespaceSchemaLocation="http://sumo.dlr.de/xsd/routes_file.xsd">
    <vType id="veh_passenger" vClass="passenger"/>
    <trip id="veh0" depart="0.00" from="237025636" to="-1185876385" departLane="best" type="veh_passenger"/>
    <trip id="veh1" depart="3.73" from="-775976220" to="-1227539673#0" departLane="best" type="veh_passenger" departSpeed="max"/>
    <trip id="veh2" depart="7.46" from="-28120450" to="133647781#2" departLane="best" type="veh_passenger"/>
    <trip id="veh3" depart="11.19" from="-1109899901" to="-28120491#1" departLane="best" type="veh_passenger" departSpeed="max"/>
    <trip id="veh4" depart="14.91" from="243553545#2" to="147575130#2" departLane="best" type="veh_passenger"/>
    <trip id="veh5" depart="18.64" from="-28120456#2" to="243896990#0" departLane="best" type="veh_passenger" departSpeed="max"/>
    <trip id="veh6" depart="22.37" from="377132617#2" to="-1109599639" departLane="best" type="veh_passenger"/>
    <trip id="veh7" depart="26.10" from="370328588#2" to="290639912#0" departLane="best" type="veh_passenger"/>
    <trip id="veh8" depart="29.83" from="40696200#0" to="27934854#6" departLane="best" type="veh_passenger"/>
    <trip id="veh9" depart="33.56" from="377132617#0" to="312174028" departLane="best" type="veh_passenger"/>
    <trip id="veh10" depart="37.29" from="-694981024" to="164040895#3" departLane="best" type="veh_passenger" departSpeed="max"/>
    <trip id="veh11" depart="41.02" from="40696209" to="239438610" departLane="best" type="veh_passenger" departSpeed="max"/>
    <trip id="veh12" depart="44.74" from="27936042#2" to="-1280500777" departLane="best" type="veh_passenger"/>
    <trip id="veh13" depart="48.47" from="-290639912#1" to="-544999266" departLane="best" type="veh_passenger"/>
    <trip id="veh14" depart="52.20" from="-1424147361" to="-40696209" departLane="best" type="veh_passenger" departSpeed="max"/>
    <trip id="veh15" depart="55.93" from="-694563680#1" to="-309618844#1" departLane="best" type="veh_passenger" departSpeed="max"/>
    <trip id="veh16" depart="59.66" from="-334652524" to="695251940#1" departLane="best" type="veh_passenger"/>
    <trip id="veh17" depart="63.39" from="243553545#1" to="27934861#6" departLane="best" type="veh_passenger"/>
    <trip id="veh18" depart="67.12" from="-27935136#4" to="312174028" departLane="best" type="veh_passenger" departSpeed="max"/>
    <trip id="veh19" depart="70.84" from="-27935002#0" to="1065415314" departLane="best" type="veh_passenger"/>
    <trip id="veh20" depart="74.57" from="886153774" to="27935252#6" departLane="best" type="veh_passenger"/>
    <trip id="veh21" depart="78.30" from="40696197" to="38098070#1" departLane="best" type="veh_passenger"/>
    <trip id="veh22" depart="82.03" from="-59482112#0" to="-40696200#4" departLane="best" type="veh_passenger"/>
    <trip id="veh23" depart="85.76" from="-28120433#3" to="695251942" departLane="best" type="veh_passenger"/>
    <trip id="veh24" depart="89.49" from="464465162#1" to="-661917532" departLane="best" type="veh_passenger"/>
    <trip id="veh25" depart="93.22" from="243896990#10" to="1108993653" departLane="best" type="veh_passenger"/>
    <trip id="veh26" depart="96.95" from="59482034#0" to="1196514116" departLane="best" type="veh_passenger" departSpeed="max"/>
    <trip id="veh27" depart="100.67" from="-32267053#0" to="-38098067#4" departLane="best" type="veh_passenger"/>
    <trip id="veh28" depart="104.40" from="1387960816#3" to="694335186#1" departLane="best" type="veh_passenger"/>
    <trip id="veh29" depart="108.13" from="-695251944#2" to="-310665115#0" departLane="best" type="veh_passenger" departSpeed="max"/>
    <trip id="veh30" depart="111.86" from="995122863" to="133748880#0" departLane="best" type="veh_passenger" departSpeed="max"/>
    <trip id="veh31" depart="115.59" from="-164040895#4" to="27935040#1" departLane="best" type="veh_passenger"/>
    <trip id="veh32" depart="119.32" from="-1215337274#1" to="1073384217" departLane="best" type="veh_passenger"/>
    <trip id="veh33" depart="123.05" from="886485942" to="1416769967-AddedOnRampEdge" departLane="best" type="veh_passenger"/>
    <trip id="veh34" depart="126.77" from="726834057#4" to="627937544" departLane="best" type="veh_passenger"/>
    <trip id="veh35" depart="130.50" from="27934968#6" to="1424147361" departLane="best" type="veh_passenger"/>
    <trip id="veh36" depart="134.23" from="-334652524" to="27936029#1" departLane="best" type="veh_passenger"/>
    <trip id="veh37" depart="137.96" from="-164040897#0" to="1148717038#0" departLane="best" type="veh_passenger"/>
    <trip id="veh38" depart="141.69" from="1103160810" to="696064752#1" departLane="best" type="veh_passenger" departSpeed="max"/>
    <trip id="veh39" depart="145.42" from="464465162#1" to="-40696199#4" departLane="best" type="veh_passenger"/>
    <trip id="veh40" depart="149.15" from="116061945" to="-28120433#0" departLane="best" type="veh_passenger"/>
    <trip id="veh41" depart="152.88" from="59482034#0" to="660103250" departLane="best" type="veh_passenger" departSpeed="max"/>
    <trip id="veh42" depart="156.60" from="-40696213" to="27935252#5" departLane="best" type="veh_passenger"/>
    <trip id="veh43" depart="160.33" from="160556513#0" to="-27994446#3" departLane="best" type="veh_passenger" departSpeed="max"/>
    <trip id="veh44" depart="164.06" from="310665116#0" to="1421955576#0" departLane="best" type="veh_passenger"/>
    <trip id="veh45" depart="167.79" from="-1030669035" to="-692909359#1" departLane="best" type="veh_passenger"/>
    <trip id="veh46" depart="171.52" from="-1109599638" to="694981025" departLane="best" type="veh_passenger"/>
    <trip id="veh47" depart="175.25" from="-128220208#6" to="1280500777" departLane="best" type="veh_passenger"/>
    <trip id="veh48" depart="178.98" from="309616179" to="-27935014" departLane="best" type="veh_passenger" departSpeed="max"/>
    <trip id="veh49" depart="182.70" from="1109914038" to="160556513#4" departLane="best" type="veh_passenger" departSpeed="max"/>
    <trip id="veh50" depart="186.43" from="-32267053#0" to="660358967#0" departLane="best" type="veh_passenger"/>
    <trip id="veh51" depart="190.16" from="886485941#0" to="27936060#1" departLane="best" type="veh_passenger"/>
    <trip id="veh52" depart="193.89" from="-229976708#18" to="-322022988#0" departLane="best" type="veh_passenger" departSpeed="max"/>
    <trip id="veh53" depart="197.62" from="-678335364#2" to="243553548#3" departLane="best" type="veh_passenger"/>
    <trip id="veh54" depart="201.35" from="-290639912#4" to="-310665115#1" departLane="best" type="veh_passenger"/>
    <trip id="veh55" depart="205.08" from="-290639912#2" to="694335196" departLane="best" type="veh_passenger"/>
    <trip id="veh56" depart="208.81" from="40696208" to="-164040895#1" departLane="best" type="veh_passenger" departSpeed="max"/>
    <trip id="veh57" depart="212.53" from="-28120439#2" to="-27935136#2" departLane="best" type="veh_passenger"/>
    <trip id="veh58" depart="216.26" from="660358967#3" to="237025636" departLane="best" type="veh_passenger"/>
    <trip id="veh59" depart="219.99" from="1109914038" to="40696199#3" departLane="best" type="veh_passenger" departSpeed="max"/>
    <trip id="veh60" depart="223.72" from="377132617#0" to="-28120461#2" departLane="best" type="veh_passenger"/>
    <trip id="veh61" depart="227.45" from="-775976220" to="1215337274#3" departLane="best" type="veh_passenger" departSpeed="max"/>
    <trip id="veh62" depart="231.18" from="886153772" to="-243553548#3" departLane="best" type="veh_passenger" departSpeed="max"/>
    <trip id="veh63" depart="234.91" from="-696064751" to="-694563674#0" departLane="best" type="veh_passenger" departSpeed="max"/>
    <trip id="veh64" depart="238.63" from="40696209" to="-40693533#0" departLane="best" type="veh_passenger" departSpeed="max"/>
    <trip id="veh65" depart="242.36" from="-27994446#2" to="1167293940" departLane="best" type="veh_passenger"/>
    <trip id="veh66" depart="246.09" from="-775976220" to="-40696209" departLane="best" type="veh_passenger" departSpeed="max"/>
    <trip id="veh67" depart="249.82" from="-310665594#1" to="694981005" departLane="best" type="veh_passenger"/>
    <trip id="veh68" depart="253.55" from="1032478202#0" to="655507173#0" departLane="best" type="veh_passenger" departSpeed="max"/>
    <trip id="veh69" depart="257.28" from="1299917512" to="-128220208#6" departLane="best" type="veh_passenger"/>
    <trip id="veh70" depart="261.01" from="995122863" to="500860056#1" departLane="best" type="veh_passenger" departSpeed="max"/>
    <trip id="veh71" depart="264.74" from="726834057#0" to="694981024" departLane="best" type="veh_passenger"/>
    <trip id="veh72" depart="268.46" from="40696200#3" to="-28103476#0" departLane="best" type="veh_passenger"/>
    <trip id="veh73" depart="272.19" from="1109968031#0" to="-310665113#0" departLane="best" type="veh_passenger" departSpeed="max"/>
    <trip id="veh74" depart="275.92" from="-695251944#2" to="-133719098" departLane="best" type="veh_passenger" departSpeed="max"/>
    <trip id="veh75" depart="279.65" from="-694981024" to="799715253#1" departLane="best" type="veh_passenger" departSpeed="max"/>
    <trip id="veh76" depart="283.38" from="-32267053#0" to="40696199#2" departLane="best" type="veh_passenger"/>
    <trip id="veh77" depart="287.11" from="1103401541#0" to="1110193765" departLane="best" type="veh_passenger"/>
    <trip id="veh78" depart="290.84" from="1305577667-AddedOffRampEdge" to="310665116#2" departLane="best" type="veh_passenger"/>
    <trip id="veh79" depart="294.56" from="-27934960#3" to="-59482034#0" departLane="best" type="veh_passenger"/>
    <trip id="veh80" depart="298.29" from="726834057#0" to="239438610" departLane="best" type="veh_passenger"/>
    <trip id="veh81" depart="302.02" from="1280500777" to="35605777#3" departLane="best" type="veh_passenger"/>
    <trip id="veh82" depart="305.75" from="-27934968#3" to="696064754" departLane="best" type="veh_passenger"/>
    <trip id="veh83" depart="309.48" from="-1262069472" to="-28120439#7" departLane="best" type="veh_passenger"/>
    <trip id="veh84" depart="313.21" from="-310665111#1" to="-27934968#1" departLane="best" type="veh_passenger" departSpeed="max"/>
    <trip id="veh85" depart="316.94" from="491889865#2" to="-38098067#3" departLane="best" type="veh_passenger"/>
    <trip id="veh86" depart="320.67" from="-744783934" to="243553545#2" departLane="best" type="veh_passenger" departSpeed="max"/>
    <trip id="veh87" depart="324.39" from="1215337274#1" to="695251940#1" departLane="best" type="veh_passenger"/>
    <trip id="veh88" depart="328.12" from="-310665112#2" to="1108993653" departLane="best" type="veh_passenger" departSpeed="max"/>
    <trip id="veh89" depart="331.85" from="27934861#0" to="-59482082#1" departLane="best" type="veh_passenger"/>
    <trip id="veh90" depart="335.58" from="-59482112#2" to="377132617#0" departLane="best" type="veh_passenger"/>
    <trip id="veh91" depart="339.31" from="995122863" to="886485940#1" departLane="best" type="veh_passenger" departSpeed="max"/>
    <trip id="veh92" depart="343.04" from="-32267053#0" to="695251938#3" departLane="best" type="veh_passenger"/>
    <trip id="veh93" depart="346.77" from="491889863#0" to="678335364#1" departLane="best" type="veh_passenger"/>
    <trip id="veh94" depart="350.49" from="-694563680#1" to="-27994589#0" departLane="best" type="veh_passenger" departSpeed="max"/>
    <trip id="veh95" depart="354.22" from="40693533#0" to="310665102" departLane="best" type="veh_passenger" departSpeed="max"/>
    <trip id="veh96" depart="357.95" from="160556513#0" to="799715253#1" departLane="best" type="veh_passenger" departSpeed="max"/>
    <trip id="veh97" depart="361.68" from="380980308#0" to="-59482082#0" departLane="best" type="veh_passenger" departSpeed="max"/>
    <trip id="veh98" depart="365.41" from="256259311" to="695251941" departLane="best" type="veh_passenger"/>
    <trip id="veh99" depart="369.14" from="-243896990#10" to="-27934864" departLane="best" type="veh_passenger"/>
    <trip id="veh100" depart="372.87" from="-147575130#2" to="164040895#5" departLane="best" type="veh_passenger"/>
    <trip id="veh101" depart="376.60" from="27994589#0" to="-290639912#1" departLane="best" type="veh_passenger" departSpeed="max"/>
    <trip id="veh102" depart="380.32" from="229976708#5" to="-40696199#4" departLane="best" type="veh_passenger"/>
    <trip id="veh103" depart="384.05" from="1110164238#1" to="694335195" departLane="best" type="veh_passenger"/>
    <trip id="veh104" depart="387.78" from="40696199#4" to="-237089962#0" departLane="best" type="veh_passenger"/>
    <trip id="veh105" depart="391.51" from="-1063933802#3" to="380980308#2" departLane="best" type="veh_passenger" departSpeed="max"/>
    <trip id="veh106" depart="395.24" from="229976708#9" to="-40696199#1" departLane="best" type="veh_passenger"/>
    <trip id="veh107" depart="398.97" from="28120439#2" to="164040895#2" departLane="best" type="veh_passenger"/>
    <trip id="veh108" depart="402.70" from="-799715253#1" to="-1109599642" departLane="best" type="veh_passenger" departSpeed="max"/>
    <trip id="veh109" depart="406.42" from="519734960" to="147575130#2" departLane="best" type="veh_passenger"/>
    <trip id="veh110" depart="410.15" from="40693533#1" to="243553545#1-AddedOnRampEdge" departLane="best" type="veh_passenger"/>
    <trip id="veh111" depart="413.88" from="32267053#0" to="627937544" departLane="best" type="veh_passenger" departSpeed="max"/>
    <trip id="veh112" depart="417.61" from="491889865#7" to="-309618844#2" departLane="best" type="veh_passenger"/>
    <trip id="veh113" depart="421.34" from="-310665594#0" to="-243896990#2" departLane="best" type="veh_passenger"/>
    <trip id="veh114" depart="425.07" from="310665594#0" to="692207400#1" departLane="best" type="veh_passenger"/>
    <trip id="veh115" depart="428.80" from="-696064752#1" to="27934975#0" departLane="best" type="veh_passenger" departSpeed="max"/>
    <trip id="veh116" depart="432.53" from="40696213" to="744561216#5" departLane="best" type="veh_passenger"/>
    <trip id="veh117" depart="436.25" from="377132617#3" to="678335364#4" departLane="best" type="veh_passenger"/>
    <trip id="veh118" depart="439.98" from="-1109599648" to="322022988#4" departLane="best" type="veh_passenger"/>
    <trip id="veh119" depart="443.71" from="-660358967#2" to="695251938#3" departLane="best" type="veh_passenger"/>
    <trip id="veh120" depart="447.44" from="377132617#3" to="-40696200#3" departLane="best" type="veh_passenger"/>
    <trip id="veh121" depart="451.17" from="322022988#10" to="-27934854#1" departLane="best" type="veh_passenger"/>
    <trip id="veh122" depart="454.90" from="40696223#1" to="610166539#1" departLane="best" type="veh_passenger"/>
    <trip id="veh123" depart="458.63" from="-28120456#2" to="491889864#1" departLane="best" type="veh_passenger" departSpeed="max"/>
    <trip id="veh124" depart="462.35" from="1109599639" to="-59482112#6" departLane="best" type="veh_passenger" departSpeed="max"/>
    <trip id="veh125" depart="466.08" from="32267053#0" to="-322022988#1" departLane="best" type="veh_passenger" departSpeed="max"/>
    <trip id="veh126" depart="469.81" from="-1109599647" to="-28120479" departLane="best" type="veh_passenger"/>
    <trip id="veh127" depart="473.54" from="695251944#0" to="-40696209" departLane="best" type="veh_passenger"/>
    <trip id="veh128" depart="477.27" from="799752774" to="1422250839" departLane="best" type="veh_passenger" departSpeed="max"/>
    <trip id="veh129" depart="481.00" from="726834057#3" to="-28120433#0" departLane="best" type="veh_passenger"/>
    <trip id="veh130" depart="484.73" from="694563680#0" to="-40696200#0" departLane="best" type="veh_passenger" departSpeed="max"/>
    <trip id="veh131" depart="488.46" from="-164040895#1" to="1148717037" departLane="best" type="veh_passenger"/>
    <trip id="veh132" depart="492.18" from="-695251938#3" to="239438610" departLane="best" type="veh_passenger" departSpeed="max"/>
    <trip id="veh133" depart="495.91" from="-1063933802#1" to="694981024" departLane="best" type="veh_passenger"/>
    <trip id="veh134" depart="499.64" from="-694335198" to="-164040895#0" departLane="best" type="veh_passenger" departSpeed="max"/>
    <trip id="veh135" depart="503.37" from="28103470" to="-59482082#2" departLane="best" type="veh_passenger"/>
    <trip id="veh136" depart="507.10" from="-696064751" to="-59482034#0" departLane="best" type="veh_passenger" departSpeed="max"/>
    <trip id="veh137" depart="510.83" from="688608667#1" to="28120439#0" departLane="best" type="veh_passenger"/>
    <trip id="veh138" depart="514.56" from="519734960" to="27934960#3" departLane="best" type="veh_passenger"/>
    <trip id="veh139" depart="518.28" from="-40696220#1" to="160556513#3" departLane="best" type="veh_passenger"/>
    <trip id="veh140" depart="522.01" from="-1030669035" to="-500860056#2" departLane="best" type="veh_passenger"/>
    <trip id="veh141" depart="525.74" from="-85933363#1" to="239438610" departLane="best" type="veh_passenger"/>
    <trip id="veh142" depart="529.47" from="243554073" to="1215278306#0" departLane="best" type="veh_passenger"/>
    <trip id="veh143" depart="533.20" from="1030669037" to="-310665113#0" departLane="best" type="veh_passenger"/>
    <trip id="veh144" depart="536.93" from="32267053#0" to="-28120427#1" departLane="best" type="veh_passenger" departSpeed="max"/>
    <trip id="veh145" depart="540.66" from="-128220208#4" to="133882373#1" departLane="best" type="veh_passenger"/>
    <trip id="veh146" depart="544.39" from="380980308#0" to="370328588#2" departLane="best" type="veh_passenger" departSpeed="max"/>
    <trip id="veh147" depart="548.11" from="27934861#3" to="-322022988#0" departLane="best" type="veh_passenger"/>
    <trip id="veh148" depart="551.84" from="40696200#4" to="-164040895#4" departLane="best" type="veh_passenger"/>
    <trip id="veh149" depart="555.57" from="-696064754" to="27935136#4" departLane="best" type="veh_passenger" departSpeed="max"/>
    <trip id="veh150" depart="559.30" from="-27994589#1" to="290638884#2" departLane="best" type="veh_passenger"/>
    <trip id="veh151" depart="563.03" from="1148717038#1" to="-380707240" departLane="best" type="veh_passenger"/>
    <trip id="veh152" depart="566.76" from="243896990#11" to="-1109599639" departLane="best" type="veh_passenger"/>
    <trip id="veh153" depart="570.49" from="28120479" to="380980308#2" departLane="best" type="veh_passenger" departSpeed="max"/>
    <trip id="veh154" depart="574.21" from="-147575130#1" to="1110193765" departLane="best" type="veh_passenger"/>
    <trip id="veh155" depart="577.94" from="-27935252#1" to="696064753" departLane="best" type="veh_passenger"/>
    <trip id="veh156" depart="581.67" from="1208112303" to="-128220208#5" departLane="best" type="veh_passenger"/>
    <trip id="veh157" depart="585.40" from="-310665594#0" to="59482034#2" departLane="best" type="veh_passenger"/>
    <trip id="veh158" depart="589.13" from="27934854#2" to="85933363#0" departLane="best" type="veh_passenger"/>
    <trip id="veh159" depart="592.86" from="491889865#3" to="27934864" departLane="best" type="veh_passenger"/>
    <trip id="veh160" depart="596.59" from="27994589#2" to="133647781#1" departLane="best" type="veh_passenger"/>
    <trip id="veh161" depart="600.32" from="491889865#6" to="343689123#1" departLane="best" type="veh_passenger"/>
    <trip id="veh162" depart="604.04" from="-310665116#2" to="27935252#1" departLane="best" type="veh_passenger" departSpeed="max"/>
    <trip id="veh163" depart="607.77" from="309616179" to="1379614784#1" departLane="best" type="veh_passenger" departSpeed="max"/>
    <trip id="veh164" depart="611.50" from="229976708#0" to="-40696208" departLane="best" type="veh_passenger"/>
    <trip id="veh165" depart="615.23" from="27936051#2" to="-1370859982" departLane="best" type="veh_passenger"/>
    <trip id="veh166" depart="618.96" from="-696064752#1" to="147575130#1" departLane="best" type="veh_passenger" departSpeed="max"/>
    <trip id="veh167" depart="622.69" from="-726834057#1" to="-309616179" departLane="best" type="veh_passenger"/>
    <trip id="veh168" depart="626.42" from="-744783934" to="694335195" departLane="best" type="veh_passenger" departSpeed="max"/>
    <trip id="veh169" depart="630.14" from="1387960816#0" to="290638884#2" departLane="best" type="veh_passenger"/>
    <trip id="veh170" depart="633.87" from="40696207" to="380707230" departLane="best" type="veh_passenger"/>
    <trip id="veh171" depart="637.60" from="-694981024" to="-1109599639" departLane="best" type="veh_passenger" departSpeed="max"/>
    <trip id="veh172" depart="641.33" from="-694335184" to="377132617#1" departLane="best" type="veh_passenger" departSpeed="max"/>
    <trip id="veh173" depart="645.06" from="40696204#1" to="696064752#1" departLane="best" type="veh_passenger"/>
    <trip id="veh174" depart="648.79" from="-744783934" to="35605777#2" departLane="best" type="veh_passenger" departSpeed="max"/>
    <trip id="veh175" depart="652.52" from="-886485937" to="-1215337274#3" departLane="best" type="veh_passenger" departSpeed="max"/>
    <trip id="veh176" depart="656.25" from="-661927454#1" to="28120439#4" departLane="best" type="veh_passenger" departSpeed="max"/>
    <trip id="veh177" depart="659.97" from="-696064751" to="-28103476#0" departLane="best" type="veh_passenger" departSpeed="max"/>
    <trip id="veh178" depart="663.70" from="1109599648" to="-27935002#0" departLane="best" type="veh_passenger"/>
    <trip id="veh179" depart="667.43" from="169075391#0" to="-1215278306#1" departLane="best" type="veh_passenger" departSpeed="max"/>
    <trip id="veh180" depart="671.16" from="-1109899901" to="27936034#2" departLane="best" type="veh_passenger" departSpeed="max"/>
    <trip id="veh181" depart="674.89" from="-243896990#13" to="1208112303" departLane="best" type="veh_passenger"/>
    <trip id="veh182" depart="678.62" from="-1182440755" to="1065415314" departLane="best" type="veh_passenger"/>
    <trip id="veh183" depart="682.35" from="28120479" to="491889865#6" departLane="best" type="veh_passenger" departSpeed="max"/>
    <trip id="veh184" depart="686.07" from="-310665595" to="-229976708#12" departLane="best" type="veh_passenger" departSpeed="max"/>
    <trip id="veh185" depart="689.80" from="-1109599638" to="1424147361" departLane="best" type="veh_passenger"/>
    <trip id="veh186" depart="693.53" from="995122863" to="-726834057#2" departLane="best" type="veh_passenger" departSpeed="max"/>
    <trip id="veh187" depart="697.26" from="243553545#3" to="40693536#2" departLane="best" type="veh_passenger"/>
    <trip id="veh188" depart="700.99" from="243553548#0" to="377132617#2" departLane="best" type="veh_passenger"/>
    <trip id="veh189" depart="704.72" from="-229976708#8" to="28120427#3" departLane="best" type="veh_passenger"/>
    <trip id="veh190" depart="708.45" from="-27935136#2" to="27934861#3" departLane="best" type="veh_passenger"/>
    <trip id="veh191" depart="712.18" from="28120461#1" to="-27934861#4" departLane="best" type="veh_passenger"/>
    <trip id="veh192" depart="715.90" from="380980308#0" to="726834057#5" departLane="best" type="veh_passenger" departSpeed="max"/>
    <trip id="veh193" depart="719.63" from="-164040895#1" to="-1185876385" departLane="best" type="veh_passenger"/>
    <trip id="veh194" depart="723.36" from="-59482082#0" to="28120439#0" departLane="best" type="veh_passenger"/>
    <trip id="veh195" depart="727.09" from="27994464#3" to="-169075391#0" departLane="best" type="veh_passenger"/>
    <trip id="veh196" depart="730.82" from="-1424147361" to="38098067#0" departLane="best" type="veh_passenger" departSpeed="max"/>
    <trip id="veh197" depart="734.55" from="40696200#5" to="27555707" departLane="best" type="veh_passenger"/>
    <trip id="veh198" depart="738.28" from="-229976708#18" to="799715253#0" departLane="best" type="veh_passenger" departSpeed="max"/>
    <trip id="veh199" depart="742.00" from="-799715253#1" to="1030669037" departLane="best" type="veh_passenger" departSpeed="max"/>
    <trip id="veh200" depart="745.73" from="1167293940" to="-694563680#0" departLane="best" type="veh_passenger"/>
    <trip id="veh201" depart="749.46" from="40696200#4" to="491889865#1" departLane="best" type="veh_passenger"/>
    <trip id="veh202" depart="753.19" from="229976708#7" to="491889865#4" departLane="best" type="veh_passenger"/>
    <trip id="veh203" depart="756.92" from="27936060#0" to="1148717038#0" departLane="best" type="veh_passenger"/>
    <trip id="veh204" depart="760.65" from="28120431#1" to="744561216#0" departLane="best" type="veh_passenger"/>
    <trip id="veh205" depart="764.38" from="-343689124#0" to="40696223#2" departLane="best" type="veh_passenger"/>
    <trip id="veh206" depart="768.11" from="-886485937" to="317617775#1" departLane="best" type="veh_passenger" departSpeed="max"/>
    <trip id="veh207" depart="771.83" from="-343689123#2" to="59482082#4" departLane="best" type="veh_passenger"/>
    <trip id="veh208" depart="775.56" from="1109599644" to="27934861#6" departLane="best" type="veh_passenger"/>
    <trip id="veh209" depart="779.29" from="-694981024" to="-1215337274#3" departLane="best" type="veh_passenger" departSpeed="max"/>
    <trip id="veh210" depart="783.02" from="40696201#0" to="-28120439#0" departLane="best" type="veh_passenger"/>
    <trip id="veh211" depart="786.75" from="-688608667#0" to="678335364#2" departLane="best" type="veh_passenger"/>
    <trip id="veh212" depart="790.48" from="27936034#2" to="-40696208" departLane="best" type="veh_passenger"/>
    <trip id="veh213" depart="794.21" from="-1102833440" to="695251944#2" departLane="best" type="veh_passenger" departSpeed="max"/>
    <trip id="veh214" depart="797.94" from="-128220208#6" to="310665116#2" departLane="best" type="veh_passenger"/>
    <trip id="veh215" depart="801.66" from="1110164238#1" to="380707230" departLane="best" type="veh_passenger"/>
    <trip id="veh216" depart="805.39" from="1148717037" to="40696203#1" departLane="best" type="veh_passenger"/>
    <trip id="veh217" depart="809.12" from="27935140#1" to="-59482112#7" departLane="best" type="veh_passenger"/>
    <trip id="veh218" depart="812.85" from="27936039#0" to="-40696204#1" departLane="best" type="veh_passenger"/>
    <trip id="veh219" depart="816.58" from="-310665595" to="-27934968#2" departLane="best" type="veh_passenger" departSpeed="max"/>
    <trip id="veh220" depart="820.31" from="-27994464#0" to="-27934968#1" departLane="best" type="veh_passenger"/>
    <trip id="veh221" depart="824.04" from="-27936051#1" to="-310665114" departLane="best" type="veh_passenger"/>
    <trip id="veh222" depart="827.76" from="1109968031#0" to="310665595" departLane="best" type="veh_passenger" departSpeed="max"/>
    <trip id="veh223" depart="831.49" from="-40693538" to="-243896990#10" departLane="best" type="veh_passenger"/>
    <trip id="veh224" depart="835.22" from="-27994464#3" to="-322022988#1" departLane="best" type="veh_passenger"/>
    <trip id="veh225" depart="838.95" from="-27936034#1" to="-1110221362" departLane="best" type="veh_passenger"/>
    <trip id="veh226" depart="842.68" from="744561216#1" to="164040895#5" departLane="best" type="veh_passenger"/>
    <trip id="veh227" depart="846.41" from="27935252#5" to="-27934983#1" departLane="best" type="veh_passenger"/>
    <trip id="veh228" depart="850.14" from="40696222" to="128220208#4" departLane="best" type="veh_passenger"/>
    <trip id="veh229" depart="853.87" from="40696223#2" to="237025639#2" departLane="best" type="veh_passenger"/>
    <trip id="veh230" depart="857.59" from="-27936051#0" to="-1331889738#0" departLane="best" type="veh_passenger"/>
    <trip id="veh231" depart="861.32" from="380980308#0" to="1109599645" departLane="best" type="veh_passenger" departSpeed="max"/>
    <trip id="veh232" depart="865.05" from="-1185209422#1" to="-27936064" departLane="best" type="veh_passenger"/>
    <trip id="veh233" depart="868.78" from="886485940#2" to="-27934960#3" departLane="best" type="veh_passenger"/>
    <trip id="veh234" depart="872.51" from="309616179" to="27934861#0" departLane="best" type="veh_passenger" departSpeed="max"/>
    <trip id="veh235" depart="876.24" from="322022988#7" to="-322022988#0" departLane="best" type="veh_passenger"/>
    <trip id="veh236" depart="879.97" from="1215278306#1" to="1185209421#2" departLane="best" type="veh_passenger"/>
    <trip id="veh237" depart="883.69" from="1030669037" to="610166539#2" departLane="best" type="veh_passenger"/>
    <trip id="veh238" depart="887.42" from="164040897#0" to="27934861#6" departLane="best" type="veh_passenger"/>