<?xml version="1.0" encoding="UTF-8"?>

<!-- generated on 2025-09-20 00:59:41 by Eclipse SUMO netconvert Version 1.24.0
<netconvertConfiguration xmlns:xsi="http://www.w3.org/2001/XMLSchema-instance" xsi:noNamespaceSchemaLocation="http://sumo.dlr.de/xsd/netconvertConfiguration.xsd">

    <input>
        <node-files value="backend/simulation/intersection.nod.xml"/>
        <edge-files value="backend/simulation/intersection.edg.xml"/>
    </input>

    <output>
        <output-file value="backend/simulation/intersection.net.xml"/>
    </output>

</netconvertConfiguration>
-->

<net version="1.20" junctionCornerDetail="5" limitTurnSpeed="5.50" xmlns:xsi="http://www.w3.org/2001/XMLSchema-instance" xsi:noNamespaceSchemaLocation="http://sumo.dlr.de/xsd/net_file.xsd">

    <location netOffset="100.00,100.00" convBoundary="0.00,0.00,200.00,200.00" origBoundary="-100.00,-100.00,100.00,100.00" projParameter="!"/>

    <edge id=":E_0" function="internal">
        <lane id=":E_0_0" index="0" speed="3.65" length="4.67" shape="200.00,98.40 201.20,99.20 201.60,100.00 201.20,100.80 200.00,101.60"/>
    </edge>
    <edge id=":J1_0" function="internal">
        <lane id=":J1_0_0" index="0" speed="6.51" length="9.03" shape="95.20,110.40 94.85,107.95 93.80,106.20 92.05,105.15 89.60,104.80"/>
    </edge>
    <edge id=":J1_1" function="internal">
        <lane id=":J1_1_0" index="0" speed="13.89" length="20.80" shape="95.20,110.40 95.20,89.60"/>
        <lane id=":J1_1_1" index="1" speed="13.89" length="20.80" shape="98.40,110.40 98.40,89.60"/>
    </edge>
    <edge id=":J1_3" function="internal">
        <lane id=":J1_3_0" index="0" speed="9.26" length="5.01" shape="98.40,110.40 99.11,105.44"/>
    </edge>
    <edge id=":J1_4" function="internal">
        <lane id=":J1_4_0" index="0" speed="3.65" length="1.44" shape="98.40,110.40 99.20,109.20"/>
    </edge>
    <edge id=":J1_20" function="internal">
        <lane id=":J1_20_0" index="0" speed="9.26" length="14.34" shape="99.11,105.44 99.15,105.15 101.40,101.40 105.15,99.15 110.40,98.40"/>
    </edge>
    <edge id=":J1_21" function="internal">
        <lane id=":J1_21_0" index="0" speed="3.65" length="3.23" shape="99.20,109.20 100.00,108.80 100.80,109.20 101.60,110.40"/>
    </edge>
    <edge id=":J1_5" function="internal">
        <lane id=":J1_5_0" index="0" speed="6.51" length="9.03" shape="110.40,104.80 107.95,105.15 106.20,106.20 105.15,107.95 104.80,110.40"/>
    </edge>
    <edge id=":J1_6" function="internal">
        <lane id=":J1_6_0" index="0" speed="13.89" length="20.80" shape="110.40,104.80 89.60,104.80"/>
        <lane id=":J1_6_1" index="1" speed="13.89" length="20.80" shape="110.40,101.60 89.60,101.60"/>
    </edge>
    <edge id=":J1_8" function="internal">
        <lane id=":J1_8_0" index="0" speed="9.26" length="5.01" shape="110.40,101.60 105.44,100.89"/>
    </edge>
    <edge id=":J1_9" function="internal">
        <lane id=":J1_9_0" index="0" speed="3.65" length="1.44" shape="110.40,101.60 109.20,100.80"/>
    </edge>
    <edge id=":J1_22" function="internal">
        <lane id=":J1_22_0" index="0" speed="9.26" length="14.34" shape="105.44,100.89 105.15,100.85 101.40,98.60 99.15,94.85 98.40,89.60"/>
    </edge>
    <edge id=":J1_23" function="internal">
        <lane id=":J1_23_0" index="0" speed="3.65" length="3.23" shape="109.20,100.80 108.80,100.00 109.20,99.20 110.40,98.40"/>
    </edge>
    <edge id=":J1_10" function="internal">
        <lane id=":J1_10_0" index="0" speed="6.51" length="9.03" shape="104.80,89.60 105.15,92.05 106.20,93.80 107.95,94.85 110.40,95.20"/>
    </edge>
    <edge id=":J1_11" function="internal">
        <lane id=":J1_11_0" index="0" speed="13.89" length="20.80" shape="104.80,89.60 104.80,110.40"/>
        <lane id=":J1_11_1" index="1" speed="13.89" length="20.80" shape="101.60,89.60 101.60,110.40"/>
    </edge>
    <edge id=":J1_13" function="internal">
        <lane id=":J1_13_0" index="0" speed="9.26" length="5.01" shape="101.60,89.60 100.89,94.56"/>
    </edge>
    <edge id=":J1_14" function="internal">
        <lane id=":J1_14_0" index="0" speed="3.65" length="1.44" shape="101.60,89.60 100.80,90.80"/>
    </edge>
    <edge id=":J1_24" function="internal">
        <lane id=":J1_24_0" index="0" speed="9.26" length="14.34" shape="100.89,94.56 100.85,94.85 98.60,98.60 94.85,100.85 89.60,101.60"/>
    </edge>
    <edge id=":J1_25" function="internal">
        <lane id=":J1_25_0" index="0" speed="3.65" length="3.23" shape="100.80,90.80 100.00,91.20 99.20,90.80 98.40,89.60"/>
    </edge>
    <edge id=":J1_15" function="internal">
        <lane id=":J1_15_0" index="0" speed="6.51" length="9.03" shape="89.60,95.20 92.05,94.85 93.80,93.80 94.85,92.05 95.20,89.60"/>
    </edge>
    <edge id=":J1_16" function="internal">
        <lane id=":J1_16_0" index="0" speed="13.89" length="20.80" shape="89.60,95.20 110.40,95.20"/>
        <lane id=":J1_16_1" index="1" speed="13.89" length="20.80" shape="89.60,98.40 110.40,98.40"/>
    </edge>
    <edge id=":J1_18" function="internal">
        <lane id=":J1_18_0" index="0" speed="9.26" length="5.01" shape="89.60,98.40 94.56,99.11"/>
    </edge>
    <edge id=":J1_19" function="internal">
        <lane id=":J1_19_0" index="0" speed="3.65" length="1.44" shape="89.60,98.40 90.80,99.20"/>
    </edge>
    <edge id=":J1_26" function="internal">
        <lane id=":J1_26_0" index="0" speed="9.26" length="14.34" shape="94.56,99.11 94.85,99.15 98.60,101.40 100.85,105.15 101.60,110.40"/>
    </edge>
    <edge id=":J1_27" function="internal">
        <lane id=":J1_27_0" index="0" speed="3.65" length="3.23" shape="90.80,99.20 91.20,100.00 90.80,100.80 89.60,101.60"/>
    </edge>
    <edge id=":N_0" function="internal">
        <lane id=":N_0_0" index="0" speed="3.65" length="4.67" shape="101.60,200.00 100.80,201.20 100.00,201.60 99.20,201.20 98.40,200.00"/>
    </edge>
    <edge id=":S_0" function="internal">
        <lane id=":S_0_0" index="0" speed="3.65" length="4.67" shape="98.40,0.00 99.20,-1.20 100.00,-1.60 100.80,-1.20 101.60,0.00"/>
    </edge>
    <edge id=":W_0" function="internal">
        <lane id=":W_0_0" index="0" speed="3.65" length="4.67" shape="0.00,101.60 -1.20,100.80 -1.60,100.00 -1.20,99.20 0.00,98.40"/>
    </edge>

    <edge id="EN" from="E" to="J1" priority="78">
        <lane id="EN_0" index="0" speed="13.89" length="89.60" shape="200.00,104.80 110.40,104.80"/>
        <lane id="EN_1" index="1" speed="13.89" length="89.60" shape="200.00,101.60 110.40,101.60"/>
    </edge>
    <edge id="NE" from="J1" to="E" priority="78">
        <lane id="NE_0" index="0" speed="13.89" length="89.60" shape="110.40,95.20 200.00,95.20"/>
        <lane id="NE_1" index="1" speed="13.89" length="89.60" shape="110.40,98.40 200.00,98.40"/>
    </edge>
    <edge id="NN" from="N" to="J1" priority="78">
        <lane id="NN_0" index="0" speed="13.89" length="89.60" shape="95.20,200.00 95.20,110.40"/>
        <lane id="NN_1" index="1" speed="13.89" length="89.60" shape="98.40,200.00 98.40,110.40"/>
    </edge>
    <edge id="NN_out" from="J1" to="N" priority="78">
        <lane id="NN_out_0" index="0" speed="13.89" length="89.60" shape="104.80,110.40 104.80,200.00"/>
        <lane id="NN_out_1" index="1" speed="13.89" length="89.60" shape="101.60,110.40 101.60,200.00"/>
    </edge>
    <edge id="NS" from="J1" to="S" priority="78">
        <lane id="NS_0" index="0" speed="13.89" length="89.60" shape="95.20,89.60 95.20,0.00"/>
        <lane id="NS_1" index="1" speed="13.89" length="89.60" shape="98.40,89.60 98.40,0.00"/>
    </edge>
    <edge id="NW" from="J1" to="W" priority="78">
        <lane id="NW_0" index="0" speed="13.89" length="89.60" shape="89.60,104.80 0.00,104.80"/>
        <lane id="NW_1" index="1" speed="13.89" length="89.60" shape="89.60,101.60 0.00,101.60"/>
    </edge>
    <edge id="SN" from="S" to="J1" priority="78">
        <lane id="SN_0" index="0" speed="13.89" length="89.60" shape="104.80,0.00 104.80,89.60"/>
        <lane id="SN_1" index="1" speed="13.89" length="89.60" shape="101.60,0.00 101.60,89.60"/>
    </edge>
    <edge id="WN" from="W" to="J1" priority="78">
        <lane id="WN_0" index="0" speed="13.89" length="89.60" shape="0.00,95.20 89.60,95.20"/>
        <lane id="WN_1" index="1" speed="13.89" length="89.60" shape="0.00,98.40 89.60,98.40"/>
    </edge>

    <tlLogic id="J1" type="static" programID="0" offset="0">
        <phase duration="42" state="GGGggrrrrrGGGggrrrrr"/>
        <phase duration="3"  state="yyyyyrrrrryyyyyrrrrr"/>
        <phase duration="42" state="rrrrrGGGggrrrrrGGGgg"/>
        <phase duration="3"  state="rrrrryyyyyrrrrryyyyy"/>
    </tlLogic>

    <junction id="E" type="priority" x="200.00" y="100.00" incLanes="NE_0 NE_1" intLanes=":E_0_0" shape="200.00,100.00 200.00,93.60 200.00,100.00">
        <request index="0" response="0" foes="0" cont="0"/>
    </junction>
    <junction id="J1" type="traffic_light" x="100.00" y="100.00" incLanes="NN_0 NN_1 EN_0 EN_1 SN_0 SN_1 WN_0 WN_1" intLanes=":J1_0_0 :J1_1_0 :J1_1_1 :J1_20_0 :J1_21_0 :J1_5_0 :J1_6_0 :J1_6_1 :J1_22_0 :J1_23_0 :J1_10_0 :J1_11_0 :J1_11_1 :J1_24_0 :J1_25_0 :J1_15_0 :J1_16_0 :J1_16_1 :J1_26_0 :J1_27_0" shape="93.60,110.40 106.40,110.40 106.84,108.18 107.40,107.40 108.18,106.84 109.18,106.51 110.40,106.40 110.40,93.60 108.18,93.16 107.40,92.60 106.84,91.82 106.51,90.82 106.40,89.60 93.60,89.60 93.16,91.82 92.60,92.60 91.82,93.16 90.82,93.49 89.60,93.60 89.60,106.40 91.82,106.84 92.60,107.40 93.16,108.18 93.49,109.18">
        <request index="0"  response="00000000000000000000" foes="00000000000011000000" cont="0"/>
        <request index="1"  response="01000000000100000000" foes="01111110000111000000" cont="0"/>
        <request index="2"  response="01000000000100000000" foes="01111110000111000000" cont="0"/>
        <request index="3"  response="01000001100100000000" foes="01110001101111000000" cont="1"/>
        <request index="4"  response="01000001100000000000" foes="01000001100000000000" cont="1"/>
        <request index="5"  response="00000001100000000000" foes="00000001100000000000" cont="0"/>
        <request index="6"  response="00000011100000001111" foes="11000011100000001111" cont="0"/>
        <request index="7"  response="00000011100000001111" foes="11000011100000001111" cont="0"/>
        <request index="8"  response="00110011100000001110" foes="00110111100000001110" cont="1"/>
        <request index="9"  response="00110000000000001000" foes="00110000000000001000" cont="1"/>
        <request index="10" response="00000000000000000000" foes="00110000000000000000" cont="0"/>
        <request index="11" response="01000000000100000000" foes="01110000000111111000" cont="0"/>
        <request index="12" response="01000000000100000000" foes="01110000000111111000" cont="0"/>
        <request index="13" response="01000000000100000110" foes="11110000000111000110" cont="1"/>
        <request index="14" response="00000000000100000110" foes="00000000000100000110" cont="1"/>
        <request index="15" response="00000000000000000110" foes="00000000000000000110" cont="0"/>
        <request index="16" response="00000011110000001110" foes="00000011111100001110" cont="0"/>
        <request index="17" response="00000011110000001110" foes="00000011111100001110" cont="0"/>
        <request index="18" response="00000011100011001110" foes="00000011100011011110" cont="1"/>
        <request index="19" response="00000010000011000000" foes="00000010000011000000" cont="1"/>
    </junction>
    <junction id="N" type="priority" x="100.00" y="200.00" incLanes="NN_out_0 NN_out_1" intLanes=":N_0_0" shape="100.00,200.00 106.40,200.00 100.00,200.00">
        <request index="0" response="0" foes="0" cont="0"/>
    </junction>
    <junction id="S" type="priority" x="100.00" y="0.00" incLanes="NS_0 NS_1" intLanes=":S_0_0" shape="100.00,0.00 93.60,0.00 100.00,0.00">
        <request index="0" response="0" foes="0" cont="0"/>
    </junction>
    <junction id="W" type="priority" x="0.00" y="100.00" incLanes="NW_0 NW_1" intLanes=":W_0_0" shape="0.00,100.00 0.00,106.40 0.00,100.00">
        <request index="0" response="0" foes="0" cont="0"/>
    </junction>

    <junction id=":J1_20_0" type="internal" x="99.11" y="105.44" incLanes=":J1_3_0 SN_0 SN_1" intLanes=":J1_6_0 :J1_6_1 :J1_8_0 :J1_9_0 :J1_10_0 :J1_11_0 :J1_11_1 :J1_16_0 :J1_16_1 :J1_18_0"/>
    <junction id=":J1_21_0" type="internal" x="99.20" y="109.20" incLanes=":J1_4_0 EN_0 SN_0 SN_1 WN_1" intLanes=":J1_5_0 :J1_11_0 :J1_11_1 :J1_18_0"/>
    <junction id=":J1_22_0" type="internal" x="105.44" y="100.89" incLanes=":J1_8_0 WN_0 WN_1" intLanes=":J1_1_0 :J1_1_1 :J1_3_0 :J1_11_0 :J1_11_1 :J1_13_0 :J1_14_0 :J1_15_0 :J1_16_0 :J1_16_1"/>
    <junction id=":J1_23_0" type="internal" x="109.20" y="100.80" incLanes=":J1_9_0 NN_1 SN_0 WN_0 WN_1" intLanes=":J1_3_0 :J1_10_0 :J1_16_0 :J1_16_1"/>
    <junction id=":J1_24_0" type="internal" x="100.89" y="94.56" incLanes=":J1_13_0 NN_0 NN_1" intLanes=":J1_0_0 :J1_1_0 :J1_1_1 :J1_6_0 :J1_6_1 :J1_8_0 :J1_16_0 :J1_16_1 :J1_18_0 :J1_19_0"/>
    <junction id=":J1_25_0" type="internal" x="100.80" y="90.80" incLanes=":J1_14_0 EN_1 NN_0 NN_1 WN_0" intLanes=":J1_1_0 :J1_1_1 :J1_8_0 :J1_15_0"/>
    <junction id=":J1_26_0" type="internal" x="94.56" y="99.11" incLanes=":J1_18_0 EN_0 EN_1" intLanes=":J1_1_0 :J1_1_1 :J1_3_0 :J1_4_0 :J1_5_0 :J1_6_0 :J1_6_1 :J1_11_0 :J1_11_1 :J1_13_0"/>
    <junction id=":J1_27_0" type="internal" x="90.80" y="99.20" incLanes=":J1_19_0 EN_0 EN_1 NN_0 SN_1" intLanes=":J1_0_0 :J1_6_0 :J1_6_1 :J1_13_0"/>

    <connection from="EN" to="NN_out" fromLane="0" toLane="0" via=":J1_5_0" tl="J1" linkIndex="5" dir="r" state="o"/>
    <connection from="EN" to="NW" fromLane="0" toLane="0" via=":J1_6_0" tl="J1" linkIndex="6" dir="s" state="o"/>
    <connection from="EN" to="NW" fromLane="1" toLane="1" via=":J1_6_1" tl="J1" linkIndex="7" dir="s" state="o"/>
    <connection from="EN" to="NS" fromLane="1" toLane="1" via=":J1_8_0" tl="J1" linkIndex="8" dir="l" state="o"/>
    <connection from="EN" to="NE" fromLane="1" toLane="1" via=":J1_9_0" tl="J1" linkIndex="9" dir="t" state="o"/>
    <connection from="NE" to="EN" fromLane="1" toLane="1" via=":E_0_0" dir="t" state="M"/>
    <connection from="NN" to="NW" fromLane="0" toLane="0" via=":J1_0_0" tl="J1" linkIndex="0" dir="r" state="O"/>
    <connection from="NN" to="NS" fromLane="0" toLane="0" via=":J1_1_0" tl="J1" linkIndex="1" dir="s" state="O"/>
    <connection from="NN" to="NS" fromLane="1" toLane="1" via=":J1_1_1" tl="J1" linkIndex="2" dir="s" state="O"/>
    <connection from="NN" to="NE" fromLane="1" toLane="1" via=":J1_3_0" tl="J1" linkIndex="3" dir="l" state="o"/>
    <connection from="NN" to="NN_out" fromLane="1" toLane="1" via=":J1_4_0" tl="J1" linkIndex="4" dir="t" state="o"/>
    <connection from="NN_out" to="NN" fromLane="1" toLane="1" via=":N_0_0" dir="t" state="M"/>
    <connection from="NS" to="SN" fromLane="1" toLane="1" via=":S_0_0" dir="t" state="M"/>
    <connection from="NW" to="WN" fromLane="1" toLane="1" via=":W_0_0" dir="t" state="M"/>
    <connection from="SN" to="NE" fromLane="0" toLane="0" via=":J1_10_0" tl="J1" linkIndex="10" dir="r" state="O"/>
    <connection from="SN" to="NN_out" fromLane="0" toLane="0" via=":J1_11_0" tl="J1" linkIndex="11" dir="s" state="O"/>
    <connection from="SN" to="NN_out" fromLane="1" toLane="1" via=":J1_11_1" tl="J1" linkIndex="12" dir="s" state="O"/>
    <connection from="SN" to="NW" fromLane="1" toLane="1" via=":J1_13_0" tl="J1" linkIndex="13" dir="l" state="o"/>
    <connection from="SN" to="NS" fromLane="1" toLane="1" via=":J1_14_0" tl="J1" linkIndex="14" dir="t" state="o"/>
    <connection from="WN" to="NS" fromLane="0" toLane="0" via=":J1_15_0" tl="J1" linkIndex="15" dir="r" state="o"/>
    <connection from="WN" to="NE" fromLane="0" toLane="0" via=":J1_16_0" tl="J1" linkIndex="16" dir="s" state="o"/>
    <connection from="WN" to="NE" fromLane="1" toLane="1" via=":J1_16_1" tl="J1" linkIndex="17" dir="s" state="o"/>
    <connection from="WN" to="NN_out" fromLane="1" toLane="1" via=":J1_18_0" tl="J1" linkIndex="18" dir="l" state="o"/>
    <connection from="WN" to="NW" fromLane="1" toLane="1" via=":J1_19_0" tl="J1" linkIndex="19" dir="t" state="o"/>

    <connection from=":E_0" to="EN" fromLane="0" toLane="1" dir="t" state="M"/>
    <connection from=":J1_0" to="NW" fromLane="0" toLane="0" dir="r" state="M"/>
    <connection from=":J1_1" to="NS" fromLane="0" toLane="0" dir="s" state="M"/>
    <connection from=":J1_1" to="NS" fromLane="1" toLane="1" dir="s" state="M"/>
    <connection from=":J1_3" to="NE" fromLane="0" toLane="1" via=":J1_20_0" dir="l" state="m"/>
    <connection from=":J1_20" to="NE" fromLane="0" toLane="1" dir="l" state="M"/>
    <connection from=":J1_4" to="NN_out" fromLane="0" toLane="1" via=":J1_21_0" dir="t" state="m"/>
    <connection from=":J1_21" to="NN_out" fromLane="0" toLane="1" dir="t" state="M"/>
    <connection from=":J1_5" to="NN_out" fromLane="0" toLane="0" dir="r" state="M"/>
    <connection from=":J1_6" to="NW" fromLane="0" toLane="0" dir="s" state="M"/>
    <connection from=":J1_6" to="NW" fromLane="1" toLane="1" dir="s" state="M"/>
    <connection from=":J1_8" to="NS" fromLane="0" toLane="1" via=":J1_22_0" dir="l" state="m"/>
    <connection from=":J1_22" to="NS" fromLane="0" toLane="1" dir="l" state="M"/>
    <connection from=":J1_9" to="NE" fromLane="0" toLane="1" via=":J1_23_0" dir="t" state="m"/>
    <connection from=":J1_23" to="NE" fromLane="0" toLane="1" dir="t" state="M"/>
    <connection from=":J1_10" to="NE" fromLane="0" toLane="0" dir="r" state="M"/>
    <connection from=":J1_11" to="NN_out" fromLane="0" toLane="0" dir="s" state="M"/>
    <connection from=":J1_11" to="NN_out" fromLane="1" toLane="1" dir="s" state="M"/>
    <connection from=":J1_13" to="NW" fromLane="0" toLane="1" via=":J1_24_0" dir="l" state="m"/>
    <connection from=":J1_24" to="NW" fromLane="0" toLane="1" dir="l" state="M"/>
    <connection from=":J1_14" to="NS" fromLane="0" toLane="1" via=":J1_25_0" dir="t" state="m"/>
    <connection from=":J1_25" to="NS" fromLane="0" toLane="1" dir="t" state="M"/>
    <connection from=":J1_15" to="NS" fromLane="0" toLane="0" dir="r" state="M"/>
    <connection from=":J1_16" to="NE" fromLane="0" toLane="0" dir="s" state="M"/>
    <connection from=":J1_16" to="NE" fromLane="1" toLane="1" dir="s" state="M"/>
    <connection from=":J1_18" to="NN_out" fromLane="0" toLane="1" via=":J1_26_0" dir="l" state="m"/>
    <connection from=":J1_26" to="NN_out" fromLane="0" toLane="1" dir="l" state="M"/>
    <connection from=":J1_19" to="NW" fromLane="0" toLane="1" via=":J1_27_0" dir="t" state="m"/>
    <connection from=":J1_27" to="NW" fromLane="0" toLane="1" dir="t" state="M"/>
    <connection from=":N_0" to="NN" fromLane="0" toLane="1" dir="t" state="M"/>
    <connection from=":S_0" to="SN" fromLane="0" toLane="1" dir="t" state="M"/>
    <connection from=":W_0" to="WN" fromLane="0" toLane="1" dir="t" state="M"/>

</net>
