<nodes>
    <node id="J1" x="0.0" y="0.0" type="traffic_light"/>
    <node id="N" x="0.0" y="100.0" type="priority"/>
    <node id="S" x="0.0" y="-100.0" type="priority"/>
    <node id="E" x="100.0" y="0.0" type="priority"/>
    <node id="W" x="-100.0" y="0.0" type="priority"/>
</nodes>
