<?xml version="1.0" encoding="UTF-8"?>

<!-- generated on 2025-09-21 02:21:59.564440 by osmWebWizard.py v1_24_0+0000-b72eb3fabc8
<configuration>
    <net-file value="C:\Users\sujit\Sumo\2025-09-21-02-21-47\osm.net.xml.gz"/>
    <output-trip-file value="C:\Users\sujit\Sumo\2025-09-21-02-21-47\osm.passenger.trips.xml"/>
    <route-file value="C:\Users\sujit\Sumo\2025-09-21-02-21-47\osm.passenger.rou.xml"/>
    <prefix value="veh"/>
    <trip-attributes value="departLane=&quot;best&quot;"/>
    <fringe-start-attributes value="departSpeed=&quot;max&quot;"/>
    <vehicle-class value="passenger"/>
    <lanes value="True"/>
    <fringe-factor value="5"/>
    <allow-fringe.min-length value="1000.0"/>
    <edge-permission value="passenger"/>
    <via-edge-types value="highway.motorway,highway.motorway_link,highway.trunk_link,highway.primary_link,highway.secondary_link,highway.tertiary_link"/>
    <min-distance value="300.0"/>
    <min-distance.fringe value="10.0"/>
    <remove-loops value="True"/>
    <insertion-density value="12.0"/>
</configuration>
-->

<routes xmlns:xsi="http://www.w3.org/2001/XMLSchema-instance" xsi:noNamespaceSchemaLocation="http://sumo.dlr.de/xsd/routes_file.xsd">
    <vType id="veh_passenger" vClass="passenger"/>
    <trip id="veh0" depart="0.00" from="26755582#1" to="-1234980578#1" departLane="best" type="veh_passenger"/>
    <trip id="veh1" depart="1.38" from="-478774542#1" to="-464264843#1" departLane="best" type="veh_passenger"/>
    <trip id="veh2" depart="2.75" from="368392224#3" to="368708839#0" departLane="best" type="veh_passenger"/>
    <trip id="veh3" depart="4.13" from="874465791#6" to="-26755582#2" departLane="best" type="veh_passenger"/>
    <trip id="veh4" depart="5.51" from="-874520139#0" to="-1426003904" departLane="best" type="veh_passenger"/>
    <trip id="veh5" depart="6.88" from="-368708792#0" to="26755853" departLane="best" type="veh_passenger"/>
    <trip id="veh6" depart="8.26" from="26755877#2" to="368392149#2" departLane="best" type="veh_passenger"/>
    <trip id="veh7" depart="9.64" from="-368708792#4" to="368392210#2" departLane="best" type="veh_passenger" departSpeed="max"/>
    <trip id="veh8" depart="11.01" from="478775464" to="-1069590760#6" departLane="best" type="veh_passenger" departSpeed="max"/>
    <trip id="veh9" depart="12.39" from="478774545" to="466839444#1" departLane="best" type="veh_passenger"/>
    <trip id="veh10" depart="13.77" from="-703796182" to="-368392193#5" departLane="best" type="veh_passenger" departSpeed="max"/>
    <trip id="veh11" depart="15.15" from="874586795" to="-874520137#6" departLane="best" type="veh_passenger" departSpeed="max"/>
    <trip id="veh12" depart="16.52" from="703274422" to="368392226#1" departLane="best" type="veh_passenger"/>
    <trip id="veh13" depart="17.90" from="478774551" to="478775713#2" departLane="best" type="veh_passenger" departSpeed="max"/>
    <trip id="veh14" depart="19.28" from="-874475295" to="368392154#8" departLane="best" type="veh_passenger"/>
    <trip id="veh15" depart="20.65" from="478800025#1" to="368392243" departLane="best" type="veh_passenger"/>
    <trip id="veh16" depart="22.03" from="746487577#2" to="368392197" departLane="best" type="veh_passenger"/>
    <trip id="veh17" depart="23.41" from="368392171#9" to="-26754316#3" departLane="best" type="veh_passenger"/>
    <trip id="veh18" depart="24.78" from="-368708801#1" to="-868990994#0" departLane="best" type="veh_passenger"/>
    <trip id="veh19" depart="26.16" from="-26755534#2" to="-478069216#0" departLane="best" type="veh_passenger"/>
    <trip id="veh20" depart="27.54" from="-26755941#0" to="-746487536#4" departLane="best" type="veh_passenger"/>
    <trip id="veh21" depart="28.91" from="26755549" to="-874592587#0" departLane="best" type="veh_passenger" departSpeed="max"/>
    <trip id="veh22" depart="30.29" from="26755845#0" to="368392236#2" departLane="best" type="veh_passenger"/>
    <trip id="veh23" depart="31.67" from="-368392215" to="478775712" departLane="best" type="veh_passenger" departSpeed="max"/>
    <trip id="veh24" depart="33.04" from="-368392209" to="-877455848#0" departLane="best" type="veh_passenger" departSpeed="max"/>
    <trip id="veh25" depart="34.42" from="877462504" to="368708784" departLane="best" type="veh_passenger"/>
    <trip id="veh26" depart="35.80" from="1208986535#1" to="40016878#10" departLane="best" type="veh_passenger"/>
    <trip id="veh27" depart="37.17" from="-368708801#7" to="-26754131" departLane="best" type="veh_passenger"/>
    <trip id="veh28" depart="38.55" from="-478800025#1" to="-593581362#4" departLane="best" type="veh_passenger"/>
    <trip id="veh29" depart="39.93" from="-368708785" to="874586785" departLane="best" type="veh_passenger" departSpeed="max"/>
    <trip id="veh30" depart="41.30" from="868990994#2" to="-874493445#1" departLane="best" type="veh_passenger"/>
    <trip id="veh31" depart="42.68" from="26755921#4" to="1014003072#0" departLane="best" type="veh_passenger"/>
    <trip id="veh32" depart="44.06" from="874501473" to="26754313#5" departLane="best" type="veh_passenger"/>
    <trip id="veh33" depart="45.44" from="-478069217" to="-478775470#2" departLane="best" type="veh_passenger"/>
    <trip id="veh34" depart="46.81" from="1209009344" to="-478800027#1" departLane="best" type="veh_passenger"/>
    <trip id="veh35" depart="48.19" from="26754140#0" to="874534192#4" departLane="best" type="veh_passenger" departSpeed="max"/>
    <trip id="veh36" depart="49.57" from="880027177#0" to="26755903#5" departLane="best" type="veh_passenger"/>
    <trip id="veh37" depart="50.94" from="-26755845#1" to="-26754330#3" departLane="best" type="veh_passenger"/>
    <trip id="veh38" depart="52.32" from="-26756002#6" to="368592624#1" departLane="best" type="veh_passenger"/>
    <trip id="veh39" depart="53.70" from="-26754610#0" to="-877455850#0" departLane="best" type="veh_passenger"/>
    <trip id="veh40" depart="55.07" from="880027173#0" to="292410140#1" departLane="best" type="veh_passenger"/>
    <trip id="veh41" depart="56.45" from="874689104#3" to="874477407" departLane="best" type="veh_passenger"/>
    <trip id="veh42" depart="57.83" from="-1089496850#1" to="478775467" departLane="best" type="veh_passenger" departSpeed="max"/>
    <trip id="veh43" depart="59.20" from="368101946#17" to="368101946#0" departLane="best" type="veh_passenger"/>
    <trip id="veh44" depart="60.58" from="-478251498#1" to="368708784" departLane="best" type="veh_passenger"/>
    <trip id="veh45" depart="61.96" from="-306969667#1" to="1234980578#3" departLane="best" type="veh_passenger"/>
    <trip id="veh46" depart="63.33" from="-874582729#1" to="874592581" departLane="best" type="veh_passenger" departSpeed="max"/>
    <trip id="veh47" depart="64.71" from="868990994#10" to="-478800351#1" departLane="best" type="veh_passenger"/>
    <trip id="veh48" depart="66.09" from="-478775721" to="368708782" departLane="best" type="veh_passenger" departSpeed="max"/>
    <trip id="veh49" depart="67.46" from="26754426#0" to="-368392191#4" departLane="best" type="veh_passenger"/>
    <trip id="veh50" depart="68.84" from="368708783" to="368101946#3" departLane="best" type="veh_passenger"/>
    <trip id="veh51" depart="70.22" from="368708949#0" to="292410140#3" departLane="best" type="veh_passenger" departSpeed="max"/>
    <trip id="veh52" depart="71.60" from="-1014242886" to="-874511511" departLane="best" type="veh_passenger" departSpeed="max"/>
    <trip id="veh53" depart="72.97" from="-1133810440#1" to="874582734" departLane="best" type="veh_passenger" departSpeed="max"/>
    <trip id="veh54" depart="74.35" from="870242502#0" to="874464056#1" departLane="best" type="veh_passenger" departSpeed="max"/>
    <trip id="veh55" depart="75.73" from="-478800012" to="-26754441#1" departLane="best" type="veh_passenger" departSpeed="max"/>
    <trip id="veh56" depart="77.10" from="868990994#8" to="874586794#0" departLane="best" type="veh_passenger"/>
    <trip id="veh57" depart="78.48" from="-26755650#0" to="26754758#1" departLane="best" type="veh_passenger"/>
    <trip id="veh58" depart="79.86" from="-26754734" to="478805824#0" departLane="best" type="veh_passenger"/>
    <trip id="veh59" depart="81.23" from="368708791#5" to="-368392151#0" departLane="best" type="veh_passenger"/>
    <trip id="veh60" depart="82.61" from="-874586794#1" to="368392153#3" departLane="best" type="veh_passenger" departSpeed="max"/>
    <trip id="veh61" depart="83.99" from="-478069935#0" to="874493441#1" departLane="best" type="veh_passenger"/>
    <trip id="veh62" depart="85.36" from="1104677401" to="478775713#3" departLane="best" type="veh_passenger" departSpeed="max"/>
    <trip id="veh63" depart="86.74" from="-368708767#2" to="-874480516#0" departLane="best" type="veh_passenger" departSpeed="max"/>
    <trip id="veh64" depart="88.12" from="879568355" to="368708792#3" departLane="best" type="veh_passenger"/>
    <trip id="veh65" depart="89.49" from="-874572887" to="26755945#1" departLane="best" type="veh_passenger" departSpeed="max"/>
    <trip id="veh66" depart="90.87" from="-368392146#1" to="-465571050#3" departLane="best" type="veh_passenger" departSpeed="max"/>
    <trip id="veh67" depart="92.25" from="-703794758#2" to="368392210#1" departLane="best" type="veh_passenger"/>
    <trip id="veh68" depart="93.62" from="-368708807" to="-464263626#0" departLane="best" type="veh_passenger" departSpeed="max"/>
    <trip id="veh69" depart="95.00" from="-368708801#6" to="874572881#1" departLane="best" type="veh_passenger"/>
    <trip id="veh70" depart="96.38" from="746487537#4" to="-26754740#0" departLane="best" type="veh_passenger"/>
    <trip id="veh71" depart="97.75" from="-368708787" to="-368392154#1" departLane="best" type="veh_passenger" departSpeed="max"/>
    <trip id="veh72" depart="99.13" from="874534193" to="368392190#4" departLane="best" type="veh_passenger"/>
    <trip id="veh73" depart="100.51" from="-874586790#0" to="703280020#1" departLane="best" type="veh_passenger"/>
    <trip id="veh74" depart="101.89" from="478774551" to="-368392246#5" departLane="best" type="veh_passenger" departSpeed="max"/>
    <trip id="veh75" depart="103.26" from="-26755921#1" to="1209433720" departLane="best" type="veh_passenger"/>
    <trip id="veh76" depart="104.64" from="-874534189" to="26754389#0" departLane="best" type="veh_passenger"/>
    <trip id="veh77" depart="106.02" from="368392214#0" to="368708823#1" departLane="best" type="veh_passenger"/>
    <trip id="veh78" depart="107.39" from="877455852#1" to="-26755903#1" departLane="best" type="veh_passenger"/>
    <trip id="veh79" depart="108.77" from="-874501462#1" to="-874534196#0" departLane="best" type="veh_passenger" departSpeed="max"/>
    <trip id="veh80" depart="110.15" from="746487577#2" to="-478775706#0" departLane="best" type="veh_passenger"/>
    <trip id="veh81" depart="111.52" from="-368392242#2" to="26754150#0" departLane="best" type="veh_passenger" departSpeed="max"/>
    <trip id="veh82" depart="112.90" from="-874520139#0" to="-746487536#6" departLane="best" type="veh_passenger"/>
    <trip id="veh83" depart="114.28" from="-368708946" to="874582725" departLane="best" type="veh_passenger" departSpeed="max"/>
    <trip id="veh84" depart="115.65" from="-874572890" to="874477410" departLane="best" type="veh_passenger" departSpeed="max"/>
    <trip id="veh85" depart="117.03" from="1185503070" to="-26754357" departLane="best" type="veh_passenger" departSpeed="max"/>
    <trip id="veh86" depart="118.41" from="880027185#1" to="874465791#14" departLane="best" type="veh_passenger"/>
    <trip id="veh87" depart="119.78" from="874624725#0" to="874582732" departLane="best" type="veh_passenger" departSpeed="max"/>
    <trip id="veh88" depart="121.16" from="703280019#0" to="-368392210#2" departLane="best" type="veh_passenger" departSpeed="max"/>
    <trip id="veh89" depart="122.54" from="-874592591#2" to="-368708833" departLane="best" type="veh_passenger"/>
    <trip id="veh90" depart="123.91" from="-874493446#0" to="-26754483#1" departLane="best" type="veh_passenger"/>
    <trip id="veh91" depart="125.29" from="-874475297#1" to="877463810#1" departLane="best" type="veh_passenger"/>
    <trip id="veh92" depart="126.67" from="-478069935#0" to="703280020#0" departLane="best" type="veh_passenger"/>
    <trip id="veh93" depart="128.05" from="-874582732" to="1208986535#1" departLane="best" type="veh_passenger" departSpeed="max"/>
    <trip id="veh94" depart="129.42" from="874586795" to="880027177#4" departLane="best" type="veh_passenger" departSpeed="max"/>
    <trip id="veh95" depart="130.80" from="1208986521" to="478774548" departLane="best" type="veh_passenger"/>
    <trip id="veh96" depart="132.18" from="-368392199" to="-874465791#7" departLane="best" type="veh_passenger" departSpeed="max"/>
    <trip id="veh97" depart="133.55" from="874624725#0" to="368392199" departLane="best" type="veh_passenger" departSpeed="max"/>
    <trip id="veh98" depart="134.93" from="1118878165" to="478800014" departLane="best" type="veh_passenger"/>
    <trip id="veh99" depart="136.31" from="-26754483#1" to="368392206#7" departLane="best" type="veh_passenger"/>
    <trip id="veh100" depart="137.68" from="-876499810" to="874475296" departLane="best" type="veh_passenger" departSpeed="max"/>
    <trip id="veh101" depart="139.06" from="-368392200#5" to="874592595" departLane="best" type="veh_passenger" departSpeed="max"/>
    <trip id="veh102" depart="140.44" from="-26755534#3" to="-368392238#3" departLane="best" type="veh_passenger"/>
    <trip id="veh103" depart="141.81" from="26754286#1" to="368708832#2" departLane="best" type="veh_passenger"/>
    <trip id="veh104" depart="143.19" from="-368708816" to="-367748414#4" departLane="best" type="veh_passenger" departSpeed="max"/>
    <trip id="veh105" depart="144.57" from="874465791#13" to="-478775470#2" departLane="best" type="veh_passenger"/>
    <trip id="veh106" depart="145.94" from="26754272" to="368392244#2" departLane="best" type="veh_passenger"/>
    <trip id="veh107" depart="147.32" from="-874520136#2" to="368392206#4" departLane="best" type="veh_passenger" departSpeed="max"/>
    <trip id="veh108" depart="148.70" from="-993828968" to="874582739" departLane="best" type="veh_passenger" departSpeed="max"/>
    <trip id="veh109" depart="150.07" from="-368708771#7" to="478774543" departLane="best" type="veh_passenger"/>
    <trip id="veh110" depart="151.45" from="-368708818#2" to="1014003072#0" departLane="best" type="veh_passenger" departSpeed="max"/>
    <trip id="veh111" depart="152.83" from="292410140#0" to="-874471509#1" departLane="best" type="veh_passenger" departSpeed="max"/>
    <trip id="veh112" depart="154.21" from="-26754775" to="26754313#3" departLane="best" type="veh_passenger"/>
    <trip id="veh113" depart="155.58" from="880027177#5" to="880027177#7" departLane="best" type="veh_passenger"/>
    <trip id="veh114" depart="156.96" from="-26754780#2" to="-368708832#1" departLane="best" type="veh_passenger"/>
    <trip id="veh115" depart="158.34" from="-478069935#0" to="874582738" departLane="best" type="veh_passenger"/>
    <trip id="veh116" depart="159.71" from="870242502#0" to="874501463" departLane="best" type="veh_passenger" departSpeed="max"/>
    <trip id="veh117" depart="161.09" from="26754509#1" to="877471885" departLane="best" type="veh_passenger"/>
    <trip id="veh118" depart="162.47" from="26755920" to="-1088782478" departLane="best" type="veh_passenger"/>
    <trip id="veh119" depart="163.84" from="478775711" to="-874471507" departLane="best" type="veh_passenger" departSpeed="max"/>
    <trip id="veh120" depart="165.22" from="-368392164#0" to="-306969667#0" departLane="best" type="veh_passenger"/>
    <trip id="veh121" depart="166.60" from="-26755982" to="368392159#10" departLane="best" type="veh_passenger"/>
    <trip id="veh122" depart="167.97" from="-478774540#1" to="368392227#2" departLane="best" type="veh_passenger" departSpeed="max"/>
    <trip id="veh123" depart="169.35" from="368392200#0" to="-368708791#2" departLane="best" type="veh_passenger" departSpeed="max"/>
    <trip id="veh124" depart="170.73" from="26755534#3" to="-478800352#1" departLane="best" type="veh_passenger"/>
    <trip id="veh125" depart="172.10" from="-874592594" to="874572881#1" departLane="best" type="veh_passenger" departSpeed="max"/>
    <trip id="veh126" depart="173.48" from="658512833" to="-26755801#1" departLane="best" type="veh_passenger"/>
    <trip id="veh127" depart="174.86" from="-874534189" to="-742373361#1" departLane="best" type="veh_passenger"/>
    <trip id="veh128" depart="176.23" from="-1014249820#1" to="593581906#1" departLane="best" type="veh_passenger" departSpeed="max"/>
    <trip id="veh129" depart="177.61" from="26755549" to="-478800025#0" departLane="best" type="veh_passenger" departSpeed="max"/>
    <trip id="veh130" depart="178.99" from="368392228#0" to="368392154#7" departLane="best" type="veh_passenger" departSpeed="max"/>
    <trip id="veh131" depart="180.36" from="-874567046#0" to="-1089496850#0" departLane="best" type="veh_passenger"/>
    <trip id="veh132" depart="181.74" from="-26755421#0" to="874501473" departLane="best" type="veh_passenger"/>
    <trip id="veh133" depart="183.12" from="874480510" to="368392150#1" departLane="best" type="veh_passenger" departSpeed="max"/>
    <trip id="veh134" depart="184.50" from="573401035#0" to="368392203" departLane="best" type="veh_passenger"/>
    <trip id="veh135" depart="185.87" from="-368392191#1" to="-368392149#0" departLane="best" type="veh_passenger"/>
    <trip id="veh136" depart="187.25" from="-478800012" to="874552320" departLane="best" type="veh_passenger" departSpeed="max"/>
    <trip id="veh137" depart="188.63" from="478069029#1" to="874477407" departLane="best" type="veh_passenger"/>
    <trip id="veh138" depart="190.00" from="874477399#1" to="-368708818#0" departLane="best" type="veh_passenger"/>
    <trip id="veh139" depart="191.38" from="-368708946" to="-26755925#1" departLane="best" type="veh_passenger" departSpeed="max"/>
    <trip id="veh140" depart="192.76" from="-874501469" to="368392245#0" departLane="best" type="veh_passenger" departSpeed="max"/>
    <trip id="veh141" depart="194.13" from="-368392199" to="874582734" departLane="best" type="veh_passenger" departSpeed="max"/>
    <trip id="veh142" depart="195.51" from="746487579#3" to="877455848#1" departLane="best" type="veh_passenger"/>
    <trip id="veh143" depart="196.89" from="478775465" to="874501469" departLane="best" type="veh_passenger" departSpeed="max"/>
    <trip id="veh144" depart="198.26" from="-1234980578#5" to="478775720" departLane="best" type="veh_passenger"/>
    <trip id="veh145" depart="199.64" from="-658513342#0" to="874582736" departLane="best" type="veh_passenger"/>
    <trip id="veh146" depart="201.02" from="478251498#1" to="874477412" departLane="best" type="veh_passenger"/>
    <trip id="veh147" depart="202.39" from="478775465" to="-593581362#1" departLane="best" type="veh_passenger" departSpeed="max"/>
    <trip id="veh148" depart="203.77" from="464263626#0" to="-26755948#2" departLane="best" type="veh_passenger" departSpeed="max"/>
    <trip id="veh149" depart="205.15" from="842470002#2" to="874477403" departLane="best" type="veh_passenger"/>
    <trip id="veh150" depart="206.52" from="-368708795" to="868990989" departLane="best" type="veh_passenger" departSpeed="max"/>
    <trip id="veh151" depart="207.90" from="-874582737" to="-874480506" departLane="best" type="veh_passenger" departSpeed="max"/>
    <trip id="veh152" depart="209.28" from="-1234980578#1" to="-368592576" departLane="best" type="veh_passenger"/>
    <trip id="veh153" depart="210.66" from="-593581905#4" to="874477412" departLane="best" type="veh_passenger"/>
    <trip id="veh154" depart="212.03" from="874624720" to="-746487536#8" departLane="best" type="veh_passenger"/>
    <trip id="veh155" depart="213.41" from="26755624" to="1014249820#1" departLane="best" type="veh_passenger"/>
    <trip id="veh156" depart="214.79" from="877455850#0" to="367748414#5" departLane="best" type="veh_passenger" departSpeed="max"/>
    <trip id="veh157" depart="216.16" from="874567045" to="-306969667#0" departLane="best" type="veh_passenger" departSpeed="max"/>
    <trip id="veh158" depart="217.54" from="874689104#1" to="-368392224#9" departLane="best" type="veh_passenger"/>
    <trip id="veh159" depart="218.92" from="874592591#0" to="-478805822" departLane="best" type="veh_passenger" departSpeed="max"/>
    <trip id="veh160" depart="220.29" from="-26756002#12" to="1234980578#2" departLane="best" type="veh_passenger"/>
    <trip id="veh161" depart="221.67" from="368392213#0" to="-874493443#0" departLane="best" type="veh_passenger"/>
    <trip id="veh162" depart="223.05" from="26754383#2" to="26755921#2" departLane="best" type="veh_passenger"/>
    <trip id="veh163" depart="224.42" from="-874477403" to="368392197" departLane="best" type="veh_passenger" departSpeed="max"/>
    <trip id="veh164" depart="225.80" from="-449403151#2" to="478774455#1" departLane="best" type="veh_passenger" departSpeed="max"/>
    <trip id="veh165" depart="227.18" from="-1014242887" to="874582729#1" departLane="best" type="veh_passenger"/>
    <trip id="veh166" depart="228.55" from="1104677400" to="478774549" departLane="best" type="veh_passenger" departSpeed="max"/>
    <trip id="veh167" depart="229.93" from="368392228#2" to="368708821" departLane="best" type="veh_passenger"/>
    <trip id="veh168" depart="231.31" from="-874465791#5" to="-26754721#0" departLane="best" type="veh_passenger"/>
    <trip id="veh169" depart="232.68" from="26755971" to="-874511515" departLane="best" type="veh_passenger"/>
    <trip id="veh170" depart="234.06" from="-478800022#1" to="874475291#2" departLane="best" type="veh_passenger" departSpeed="max"/>
    <trip id="veh171" depart="235.44" from="368392200#4" to="-874471509#3" departLane="best" type="veh_passenger"/>
    <trip id="veh172" depart="236.81" from="-478800014" to="1081390707" departLane="best" type="veh_passenger" departSpeed="max"/>
    <trip id="veh173" depart="238.19" from="-874501462#0" to="-874465791#3" departLane="best" type="veh_passenger"/>
    <trip id="veh174" depart="239.57" from="-368392153#3" to="1194720928" departLane="best" type="veh_passenger" departSpeed="max"/>
    <trip id="veh175" depart="240.95" from="874567048#1" to="368708839#1" departLane="best" type="veh_passenger"/>
    <trip id="veh176" depart="242.32" from="874480507#0" to="368392242#0" departLane="best" type="veh_passenger" departSpeed="max"/>
    <trip id="veh177" depart="243.70" from="-478775722" to="368392151#4" departLane="best" type="veh_passenger" departSpeed="max"/>
    <trip id="veh178" depart="245.08" from="-1014242886" to="-791912023#1" departLane="best" type="veh_passenger" departSpeed="max"/>
    <trip id="veh179" depart="246.45" from="-874567048#1" to="368392200#2" departLane="best" type="veh_passenger"/>
    <trip id="veh180" depart="247.83" from="26755921#2" to="26754360" departLane="best" type="veh_passenger"/>
    <trip id="veh181" depart="249.21" from="-874572890" to="-368708833" departLane="best" type="veh_passenger" departSpeed="max"/>
    <trip id="veh182" depart="250.58" from="-874586790#2" to="874567046#1" departLane="best" type="veh_passenger" departSpeed="max"/>
    <trip id="veh183" depart="251.96" from="478069029#1" to="-368392214#1" departLane="best" type="veh_passenger"/>
    <trip id="veh184" depart="253.34" from="-26755642#0" to="26755941#0" departLane="best" type="veh_passenger"/>
    <trip id="veh185" depart="254.71" from="26755522#3" to="-874520137#1" departLane="best" type="veh_passenger"/>
    <trip id="veh186" depart="256.09" from="478775713#2" to="478800020#1" departLane="best" type="veh_passenger"/>
    <trip id="veh187" depart="257.47" from="292410140#1" to="-465571050#3" departLane="best" type="veh_passenger"/>
    <trip id="veh188" depart="258.84" from="-368592537#1" to="-1230825178" departLane="best" type="veh_passenger" departSpeed="max"/>
    <trip id="veh189" depart="260.22" from="-368708832#2" to="26754542#0" departLane="best" type="veh_passenger" departSpeed="max"/>
    <trip id="veh190" depart="261.60" from="-874511507#1" to="368708767#2" departLane="best" type="veh_passenger" departSpeed="max"/>
    <trip id="veh191" depart="262.97" from="-368392245#1" to="465571275#1" departLane="best" type="veh_passenger" departSpeed="max"/>
    <trip id="veh192" depart="264.35" from="-874599406#1" to="-478775465" departLane="best" type="veh_passenger" departSpeed="max"/>
    <trip id="veh193" depart="265.73" from="26755925#0" to="-1069590760#3" departLane="best" type="veh_passenger"/>
    <trip id="veh194" depart="267.11" from="368392247#1" to="593581906#0" departLane="best" type="veh_passenger"/>
    <trip id="veh195" depart="268.48" from="-26755971" to="1209009342#0-AddedOnRampEdge" departLane="best" type="veh_passenger"/>
    <trip id="veh196" depart="269.86" from="-368392224#0" to="874592593" departLane="best" type="veh_passenger"/>
    <trip id="veh197" depart="271.24" from="-877471886" to="-26754345#0" departLane="best" type="veh_passenger" departSpeed="max"/>
    <trip id="veh198" depart="272.61" from="-368708946" to="874475291#2" departLane="best" type="veh_passenger" departSpeed="max"/>
    <trip id="veh199" depart="273.99" from="-874582733" to="746487537#0" departLane="best" type="veh_passenger" departSpeed="max"/>
    <trip id="veh200" depart="275.37" from="26756002#7" to="877471886" departLane="best" type="veh_passenger"/>
    <trip id="veh201" depart="276.74" from="26754313#0" to="874586797#1" departLane="best" type="veh_passenger"/>
    <trip id="veh202" depart="278.12" from="874465791#2" to="368392238#4" departLane="best" type="veh_passenger"/>
    <trip id="veh203" depart="279.50" from="368392200#2" to="26755845#1" departLane="best" type="veh_passenger"/>
    <trip id="veh204" depart="280.87" from="478800351#0" to="368392151#4" departLane="best" type="veh_passenger"/>
    <trip id="veh205" depart="282.25" from="874475292#0" to="478800010" departLane="best" type="veh_passenger"/>
    <trip id="veh206" depart="283.63" from="-874586794#0" to="-478800013#0" departLane="best" type="veh_passenger"/>
    <trip id="veh207" depart="285.00" from="-368708839#1" to="368708781" departLane="best" type="veh_passenger" departSpeed="max"/>
    <trip id="veh208" depart="286.38" from="368708791#5" to="26755982" departLane="best" type="veh_passenger"/>
    <trip id="veh209" depart="287.76" from="26754786" to="-703794758#5" departLane="best" type="veh_passenger"/>
    <trip id="veh210" depart="289.13" from="-26755497#0" to="-776027254#4" departLane="best" type="veh_passenger"/>
    <trip id="veh211" depart="290.51" from="-478774456" to="-874511506" departLane="best" type="veh_passenger" departSpeed="max"/>
    <trip id="veh212" depart="291.89" from="1105166399" to="-368392167#0" departLane="best" type="veh_passenger"/>
    <trip id="veh213" depart="293.26" from="-368708808" to="464263627#0" departLane="best" type="veh_passenger" departSpeed="max"/>
    <trip id="veh214" depart="294.64" from="368392179" to="-26754563" departLane="best" type="veh_passenger"/>
    <trip id="veh215" depart="296.02" from="-874501472#1" to="368392146#1" departLane="best" type="veh_passenger" departSpeed="max"/>
    <trip id="veh216" depart="297.40" from="-874511514#1" to="-368708800#3" departLane="best" type="veh_passenger"/>
    <trip id="veh217" depart="298.77" from="-874520137#2" to="874572881#0" departLane="best" type="veh_passenger"/>
    <trip id="veh218" depart="300.15" from="26754114#3" to="465571050#2" departLane="best" type="veh_passenger"/>
    <trip id="veh219" depart="301.53" from="746487536#6" to="573401035#5" departLane="best" type="veh_passenger"/>
    <trip id="veh220" depart="302.90" from="-874477400" to="-1069590760#4" departLane="best" type="veh_passenger" departSpeed="max"/>
    <trip id="veh221" depart="304.28" from="-746487537#7" to="478800022#1" departLane="best" type="veh_passenger"/>
    <trip id="veh222" depart="305.66" from="703808371#3" to="874586807#1" departLane="best" type="veh_passenger"/>
    <trip id="veh223" depart="307.03" from="1133810439#0" to="368392225#1" departLane="best" type="veh_passenger"/>
    <trip id="veh224" depart="308.41" from="-368708792#4" to="-449403151#0" departLane="best" type="veh_passenger" departSpeed="max"/>
    <trip id="veh225" depart="309.79" from="-703348549" to="368708946" departLane="best" type="veh_passenger" departSpeed="max"/>
    <trip id="veh226" depart="311.16" from="-874501463" to="-368392210#0" departLane="best" type="veh_passenger" departSpeed="max"/>
    <trip id="veh227" depart="312.54" from="-874582748#1" to="-368392149#1" departLane="best" type="veh_passenger" departSpeed="max"/>
    <trip id="veh228" depart="313.92" from="26754721#1" to="-1386043220" departLane="best" type="veh_passenger"/>
    <trip id="veh229" depart="315.29" from="-874480513" to="368392172" departLane="best" type="veh_passenger" departSpeed="max"/>
    <trip id="veh230" depart="316.67" from="-1388249679" to="368708786" departLane="best" type="veh_passenger" departSpeed="max"/>
    <trip id="veh231" depart="318.05" from="-368392164#5" to="26754330#4" departLane="best" type="veh_passenger" departSpeed="max"/>
    <trip id="veh232" depart="319.42" from="-26754345#1" to="-877455848#0" departLane="best" type="veh_passenger"/>
    <trip id="veh233" depart="320.80" from="-368708785" to="-874511513#0" departLane="best" type="veh_passenger" departSpeed="max"/>
    <trip id="veh234" depart="322.18" from="368708772#1" to="-877455848#0" departLane="best" type="veh_passenger"/>
    <trip id="veh235" depart="323.56" from="368392252#2" to="874464056#1" departLane="best" type="veh_passenger"/>
    <trip id="veh236" depart="324.93" from="-368708950" to="-26755497#2" departLane="best" type="veh_passenger" departSpeed="max"/>